1   'GENCLS'   1   0.0   0.0 /
3   'GENCLS'   1   3.5   0.0 /