1   'GENCLS'   1   4.0   0.0 /
2   'GENCLS'   1   0.0   0.0 /