    101 'GENCLS' 1     0.0000       0.0000      /
    102 'GENROU' 1     8.0000      0.30000E-01  0.40000      0.50000E-01
          6.1750      0.50000E-01   1.8000       1.7000      0.30000
         0.55000      0.25000      0.20000      0.00000      1.0000      /
    102 'TGOV1'  1   0.05  0.2  1.2  0.1  0.3  0.8  0 /
    102 'ESAC1A' 1    0.10000E-01  0.10000       0.0000       200.00
         0.50000E-01   7.0000      -7.0000       1.3330      0.20000E-01
         0.80000       0.0000       0.0000       1.0000       0.0000
          0.0000       0.0000       0.0000       10.000      -10.000    /
