101 'GENCLS' 1  0.000000  0.000000  /
102 'GENSAL'  1     5.0000      0.50000E-01  0.20000       5.0000    
        0.0000       1.0000      0.75000      0.40000      0.25000    
        0.10000      0.11000      0.62000    /