    101 'GENCLS' 1     0.0000       0.0000      /
    102 'GENROU' 1     8.0000      0.30000E-01  0.40000      0.50000E-01
          6.1750      0.50000E-01   1.8000       1.7000      0.30000
         0.55000      0.25000      0.20000       0.0000       1.0000      /
    102 'SEXS' 1    0.4    5.0      20.0     1.0     -50.0       50.0 /
    102 'HYGOV'   1    0.50000E-01  0.75000E-01   12.000      0.50000
          20.500      0.10000       1.0000       0.0000       15.000
          1.5000       0.0000      0.80000E-01  /
