    101 'GENCLS' 1     0.0000       0.0000      /
    102 'GENROU' 1     8.0000      0.30000E-01  0.40000      0.50000E-01
          6.1750      0.50000E-01   1.8000       1.7000      0.30000
         0.55000      0.25000      0.20000      0.10000      0.80000      /
    102 'SEXS' 1    0.4    5.0      20.0     1.0     -50.0       50.0 /
    102 'IEEEST' 1  1  0  1.013  0.013  0  0  1.013  0.113  0  0.02  0  0  1.65  1.65  3  0.1  -0.1  0  0 /
