    102 'GENCLS' 1     0.0000       0.0000      /
    103 'REGCA1' 1       0
         0.20000E-01   10.000      0.90000      0.40000       1.2200
          1.2000      0.90000      0.50000      -1.3000      0.20000
          0.0000       100.00      -100.00       0.0000      /
    103 'REECB1' 1
          0          0       1       0       0
         -99.000          99.000         0.20000E-01    -0.10000E-01     0.10000E-01
          1.0000          1.1000         -1.1000          0.0000          0.0000
         0.44000        -0.44000          1.0500         0.90000          0.0000
         0.10000E-01      10.000          60.000         0.20000E-01      99.000
         -99.000          1.2000          0.0000          1.1100         0.20000E-01   /
    103 'REPCA1' 1
             0           0           0    '0 '        0       1       0
         0.20000E-01      18.000          5.0000          0.0000         0.50000E-01
          0.0000          0.0000          0.0000          0.0000         0.10000
        -0.10000        -0.10000E-01     0.10000E-01     0.43000        -0.43000
          1.0000         0.50000E-01     0.25000        -0.10000E-01     0.10000E-01
          99.000         -99.000          1.2000          0.0000         0.10000
          0.0000          0.0000      /
