1 'GENCLS'  1   0 0 /
2 'GENSAL'  1   8.0   999     999    3.5    4.0    2.1     2.1     0.4      0.4      0.10     0.0    0.0/
2 'EXAC1'   1   0.01  1.0     1.0    200.0  0.2    10.0    -10.0   0.1      0.001    0.1      1.0    1.0    1.0    1.0    0.0    1.2    0.0/
2 'HYGOV'   1   0.04  0.5     1.0    0.05   0.20   0.10    1.0     0.00     1        1.0      0.0    0.0/