    101 'GENROU' 1     8.0000      0.30000E-01  0.40000      0.50000E-01
          6.1750      0.50000E-01   1.8000       1.7000      0.30000
         0.55000      0.25000      0.20000      0.10000      0.80000      /
    102 'GENROU' EG    6.0000      0.50000       1.0000      0.50000E-01
          3.5400       0.0000       1.4000       1.3500      0.30000
         0.60000      0.20000      0.10000       0.0000       0.0000      /
    102 'SEXS'   EG   0.10000       10.000       100.00      0.10000
          0.0000       3.0000      /
    102 'GAST'   EG   0.33000      0.50000      0.50000       3.0000
          1.0000       2.0000       1.0000       0.0000       0.0000      /
    102 'GENROU' ND    6.0000      0.50000       1.0000      0.50000E-01
          3.5400       0.0000       1.4000       1.3500      0.30000
         0.60000      0.20000      0.10000       0.0000       0.0000      /
    102 'SEXS'   ND   0.10000       10.000       100.00      0.10000
          0.0000       3.0000      /
    102 'TGOV1'  ND   0.33000       2.0000       1.0000       0.0000
          3.0000       15.000      0.40000      /
    102 'GENROU' RG    6.0000      0.50000       1.0000      0.50000E-01
          3.5400       0.0000       1.4000       1.3500      0.30000
         0.60000      0.20000      0.10000       0.0000       0.0000      /
    102 'SEXS'   RG   0.10000       10.000       100.00      0.10000
          0.0000       3.0000      /
    102 'GAST'   RG   0.33000      0.50000      0.50000       3.0000
          1.0000       2.0000       1.0000       0.0000       0.0000      /
    102 'GENROU' SG    6.0000      0.50000       1.0000      0.50000E-01
          3.5400       0.0000       1.4000       1.3500      0.30000
         0.60000      0.20000      0.10000       0.0000       0.0000      /
    102 'SEXS'   SG   0.10000       10.000       100.00      0.10000
          0.0000       3.0000      /
    102 'GAST'   SG   0.33000      0.50000      0.50000       3.0000
          1.0000       2.0000       1.0000       0.0000       0.0000      /
    102 'GENROU' SH    6.0000      0.50000       1.0000      0.50000E-01
          3.5400       0.0000       1.4000       1.3500      0.30000
         0.60000      0.20000      0.10000       0.0000       0.0000      /
    102 'SEXS'   SH   0.10000       10.000       100.00      0.10000
          0.0000       3.0000      /
    102 'HYGOV'  SH   0.33000       1.0000       10.000      0.50000E-01
          10.000      0.10000E-02   1.0000       0.0000       1.0000
          1.5000       0.0000      0.80000E-01  /
    102 'GENROU' WG    6.0000      0.50000       1.0000      0.50000E-01
          3.5400       0.0000       1.4000       1.3500      0.30000
         0.60000      0.20000      0.10000       0.0000       0.0000      /
    102 'IEEEST' WG         1            0       1.0130      0.13000E-01
          0.0000       0.0000       1.0130      0.11300       11.000
         0.20000E-01   0.0000       0.0000       1.6500       1.6500
          3.0000      0.10000     -0.10000       0.0000       0.0000      /
    102 'SEXS'   WG   0.10000       10.000       100.00      0.10000
          0.0000       3.0000      /
    102 'GAST'   WG   0.33000      0.50000      0.50000       3.0000
          1.0000       2.0000       1.0000       0.0000       0.0000      /
    102 'REGCA1' S       1
         0.20000E-01   10.000      0.90000      0.40000       1.2200
          1.2000      0.90000      0.50000      -1.3000      0.20000E-01
          0.0000       100.00      -100.00      0.70000      /
    102 'REECB1' S
          0          0       1       0       0
         -99.000          99.000         0.20000E-01      0.0000          0.0000
          0.0000          1.1000         -1.1000          0.0000         0.50000E-01
         0.44000        -0.44000          1.0500         0.90000          0.0000
         0.10000E-01      10.000          60.000         0.20000E-01      99.000
         -99.000          1.0000          0.0000          1.1100         0.20000E-01   /
    102 'REPCA1' S
             0           0           0    '0 '        0       0       1
         0.20000E-01      18.000          5.0000          0.0000         0.50000E-01
          0.0000          0.0000          0.0000         0.20000E-01     0.10000
        -0.10000         -1.0000          1.0000         0.43000        -0.43000
          1.0000         0.50000E-01     0.25000         -1.0000          1.0000
          99.000         -99.000          1.0000          0.0000         0.10000
          0.0000          0.0000      /
    102 'REGCA1' SW      1
         0.20000E-01   10.000      0.90000      0.40000       1.2200
          1.2000      0.90000      0.50000      -1.3000      0.20000E-01
          0.0000       100.00      -100.00      0.70000      /
    102 'REECB1' SW
          0          0       1       0       0
         -99.000          99.000         0.20000E-01      0.0000          0.0000
          0.0000          1.1000         -1.1000          0.0000         0.50000E-01
         0.44000        -0.44000          1.0500         0.90000          0.0000
         0.10000E-01      10.000          60.000         0.20000E-01      99.000
         -99.000          1.0000          0.0000          1.1100         0.20000E-01   /
    102 'REPCA1' SW
             0           0           0    '0 '        0       0       1
         0.20000E-01      18.000          5.0000          0.0000         0.50000E-01
          0.0000          0.0000          0.0000         0.20000E-01     0.10000
        -0.10000         -1.0000          1.0000         0.43000        -0.43000
          1.0000         0.50000E-01     0.25000         -1.0000          1.0000
          99.000         -99.000          1.0000          0.0000         0.10000
          0.0000          0.0000      /
