1 'GENCLS'  1   0 0 /
2 'GENSAL'  1   8.0   999    999     3.5    4.0    2.1     2.1  0.4   0.4     0.10     0.0   0.0/
2 'EXST1'   1   0.01  5.0   -5.0   10    20    200.0   0.1   6.0   0.0   0.0   0.0   0.1 /
2 'HYGOV'   1   0.04  0.5    1.0     0.05   0.20   0.10    1.0        0.00    1        1.0   0.0   0.0/