  0 'IEELAL' *  1  0  0  1  0  0  0  0  2  0  0  2  0  0  /
  101 'GENSAL' 1   8.500000  0.050000  0.200000  3.600000  0.000000  1.100000  0.650000
  0.250000  0.250000  0.140000  0.000000  0.000000  /
  101 'ESST1A' 1   1  1  0  99  -99  2.5  13.25  0  0  200  0.1  9.5  -9.5  9.5  -9.5  0  0  1  0  999  /
  201 'GENROE' 1   8.500000  0.040000  0.300000  0.080000  3.200000  0.000000  1.800000
  1.750000  0.300000  0.700000  0.210000  0.200000  0.000000  0.000000  /
  201 'ESST1A' 1   1  1  0  99  -99  0.5  1.12  0  0  400  0.02  9.5  -9.5  9.5  -9.5  0  0  1  0  999  /
  201 'IEEEST' 1   1  0  0.01333  0.000044  0  0  0.128  0.0064  0  0  0  0  7.5  7.5  5.556  0.1  -0.1  0  0  /
  202 'GENROE' 1   4.500000  0.040000  1.500000  0.060000  2.800000  0.000000  2.200000
  2.100000  0.300000  0.500000  0.200000  0.170000  0.000000  0.000000  /
  202 'ESAC1A' 1   0  0  0  400  0.02  5.5  -5.5  1  0.029  1  0  0  1  0  0  0  0  99  -99  /
  202 'IEEEST' 1   1  0  0.006667  0  0  0  0.04  0  0.286  0.006667  0.111  0.006667  7.5  7.5  4.651  0.1  -0.1  0  0  /
  203 'GENROE' 1   5.000000  0.030000  2.000000  0.250000  2.600000  0.000000  2.300000
  1.700000  0.300000  0.400000  0.250000  0.200000  0.000000  0.000000  /
  203 'ESST1A' 1   1  1  0  99  -99  0.35  0.7  0  0  300  0.01  10.5  -10.5  10.5  -10.5  0  0  1  0  999  /
  203 'IEEEST' 1   1  0  0  0  0  0  0  0  0.0708  0.006667  0.0292  0.006667  7.5  7.5  5.714  0.1  -0.1  0  0  /
  204 'GENROE' 1   8.500000  0.040000  0.300000  0.080000  3.200000  0.000000  1.800000
  1.750000  0.300000  0.700000  0.210000  0.200000  0.000000  0.000000  /
  204 'ESST1A' 1   1  1  0  99  -99  0.5  1.12  0  0  400  0.02  9.5  -9.5  9.5  -9.5  0  0  1  0  999  /
  204 'IEEEST' 1   1  0  0.01333  0.000044  0  0  0.1  0.0051  0.01  0.006667  0  0  7.5  7.5  6.667  0.1  -0.1  0  0  /
  205 'CSVGN1' 1   15.3846  0  1  0.074641  1  0.005359  0  1  0  430  /
  301 'GENROE' 1   7.500000  0.040000  0.850000  0.120000  2.800000  0.000000  2.700000
  1.500000  0.300000  0.850000  0.250000  0.200000  0.000000  0.000000  /
  301 'ESST1A' 1   1  1  0  99  -99  1.14  6.42  0  0  400  0.05  42  -42  42  -42  0  0  1  0  999  /
  301 'IEEEST' 1   1  0  0.01333  0.000044  0  0  0.1684  0.0118  0  0  0  0  7.5  7.5  12.5  0.1  -0.1  0  0  /
  302 'GENSAL' 1   7.500000  0.040000  0.250000  3.500000  0.000000  2.000000  1.800000
  0.250000  0.200000  0.150000  0.000000  0.000000  /
  302 'ESAC1A' 1   0  0  0  200  0.05  7  -7  1.333  0.02  0.8  0  0  1  0  0  0  0  99  -99  /
  302 'IEEEST' 1   1  0  0.01333  0.000044  0  0  0.5091  0.1322  0.05  0.006667  0  0  7.5  7.5  5.97  0.1  -0.1  0  0  /
  313 'CSVGN1' 1   12.5  0  1  0.074641  1  0.005359  0  1  0  600  /
  401 'GENROE' 1   5.000000  0.030000  2.000000  0.250000  2.600000  0.000000  2.300000
  1.700000  0.300000  0.400000  0.250000  0.200000  0.000000  0.000000  /
  401 'ESST1A' 1   1  1  0  99  -99  4  40  0  0  300  0.1  13  -13  13  -13  0  0  1  0  999  /
  401 'IEEEST' 1   1  0  0  0  0  0  0  0  0.2083  0.006667  0.2083  0.006667  7.5  7.5  7.143  0.1  -0.1  0  0  /
  402 'GENROE' 1   6.500000  0.035000  1.400000  0.040000  3.000000  0.000000  1.900000
  1.800000  0.300000  0.550000  0.260000  0.200000  0.000000  0.000000  /
  402 'ESST1A' 1   1  1  0.02  99  -99  1.52  9.8  0  0  300  0.05  11  -11  11  -11  0  0  1  0  999  /
  402 'IEEEST' 1   1  0  0  0  0  0  0  0  0.2777  0.006667  0.1  0.006667  7.5  7.5  4.706  0.1  -0.1  0  0  /
  403 'GENROE' 1   5.000000  0.030000  2.000000  0.250000  2.600000  0.000000  2.300000
  1.700000  0.300000  0.400000  0.250000  0.200000  0.000000  0.000000  /
  403 'ESST1A' 1   1  1  0  99  -99  0.35  0.7  0  0  300  0.01  13  -13  13  -13  0  0  1  0  999  /
  403 'IEEEST' 1   1  0  0.01333  0.000044  0  0  0.0909  0.002067  0  0  0  0  7.5  7.5  6.329  0.1  -0.1  0  0  /
  404 'GENROE' 1   9.000000  0.040000  1.400000  0.130000  4.000000  0.000000  2.200000
  1.400000  0.320000  0.750000  0.240000  0.180000  0.000000  0.000000  /
  404 'ESST1A' 1   1  1  0  99  -99  0.136  0.0232  0  0  250  0.2  11  -11  11  -11  0  0  1  0  999  /
  404 'IEEEST' 1   1  0  0.01333  0.000044  0  0  0.1154  0.005917  0  0  0  0  7.5  7.5  6.061  0.1  -0.1  0  0  /
  412 'CSVGN1' 1   6.993  0  1  0.074641  1  0.005359  0  1  0  1100  /
  501 'GENROE' 1   7.500000  0.025000  1.500000  0.100000  3.500000  0.000000  2.200000
  1.700000  0.300000  0.800000  0.240000  0.150000  0.000000  0.000000  /
  501 'ESAC1A' 1   0  0  0  1000  0.04  5.5  -5.5  0.87  0.004  0.27  0  0  1  0  0  0  0  99  -99  /
  501 'IEEEST' 1   1  0  0.01333  0.000044  0  0  0.3  0.1111  0.033  0.3  0.033  0.006667  7.5  7.5  3.899  0.1  -0.1  0  0  /
  502 'GENROE' 1   7.500000  0.040000  3.000000  0.200000  4.000000  0.000000  2.000000
  1.500000  0.300000  0.800000  0.220000  0.200000  0.000000  0.000000  /
  502 'ESST1A' 1   1  1  0  99  -99  1.4  16  0.6  0.05  400  0.5  22  -22  22  -22  0  0  1  0  999  /
  502 'IEEEST' 1   1  0  0.006667  0  0  0  0.0167  0  0.5  0.006667  0.0588  0.006667  7.5  7.5  5.882  0.1  -0.1  0  0  /
  503 'GENROE' 1   5.000000  0.022000  1.000000  0.035000  7.500000  0.000000  2.300000
  2.000000  0.250000  0.350000  0.170000  0.150000  0.000000  0.000000  /
  503 'ESST1A' 1   1  1  0  99  -99  0.2  0.8  0  0  300  0.01  18.5  -18.5  18.5  -18.5  0  0  1  0  999  /
  503 'IEEEST' 1   1  0  0.01333  0.000044  0  0  0.187  0.00334  0.2  0.35  0.187  0.0667  7.5  7.5  3.559  0.1  -0.1  0  0  /
  507 'CSVGN1' 1   20  0  1  0.154833  1  0.005167  0  1  0  320  /
  509 'CSVGN1' 1   18.1818  0  1  0.154833  1  0.005167  0  1  0  400  /
