      1 'GENROU' 1     7.4000      0.30000E-01  0.85000      0.33000E-01
          5.1480       2.0000      0.89790      0.64600      0.30000
         0.64600      0.23000      0.22000      0.10000E-01   1.0000      /
      1 'ESAC1A' 1    0.10000E-02  0.20000      0.10000E-02   400.00
         0.20000E-01   10.000      -10.000      0.80000      0.30000E-01
          1.0000      0.20000      0.38000       1.0000       3.1400
         0.30000E-01   4.1800      0.10000       7.3200      -7.3200    /
      1 'GAST'   1    0.50000E-01  0.20000      0.20000       2.0000
          1.0000       2.5000       1.1000      0.10000E-01   0.0000      /
      2 'GENROU' 1     6.1000      0.40000E-01  0.30000      0.99000E-01
          6.5400       2.0000       1.0500      0.98000      0.18500
         0.36000      0.13000       0.0000      0.10000E-01   1.0000      /
      2 'ESAC1A' 1    0.10000E-02  0.20000      0.10000E-02   400.00
         0.20000E-01   10.000      -10.000      0.80000      0.30000E-01
          1.0000      0.20000      0.38000       1.0000       3.1400
         0.30000E-01   4.1800      0.10000       7.3200      -7.3200    /
      3 'GENROU' 1     6.1000      0.40000E-01  0.30000      0.99000E-01
          6.5400       2.0000       1.0500      0.98000      0.18500
         0.36000      0.13000       0.0000      0.10000      0.40000      /
      3 'ESAC1A' 1    0.10000E-02  0.20000      0.10000E-02   400.00
         0.20000E-01   10.000      -10.000      0.80000      0.30000E-01
          1.0000      0.20000      0.38000       1.0000       3.1400
         0.30000E-01   4.1800      0.10000       7.3200      -7.3200    /
      6 'GENROU' 1     4.7500      0.60000E-01   1.5000      0.19000
          5.0600       2.0000       1.2500       1.2200      0.23200
         0.71500      0.12000      0.11000      0.10000      0.40000      /
      6 'ESAC1A' 1    0.10000E-02  0.20000      0.10000E-02   400.00
         0.20000E-01   10.000      -10.000      0.80000      0.30000E-01
          1.0000      0.20000      0.38000       1.0000       3.1400
         0.30000E-01   4.1800      0.10000       7.3200      -7.3200    /
      8 'GENROU' 1     4.7500      0.60000E-01   1.5000      0.19000
          5.0600       2.0000       1.2500       1.2200      0.23200
         0.71500      0.12000      0.11000      0.10000      0.40000      /
      8 'ESAC1A' 1    0.10000E-02  0.20000      0.10000E-02   400.00
         0.20000E-01   10.000      -10.000      0.80000      0.30000E-01
          1.0000      0.20000      0.38000       1.0000       3.1400
         0.30000E-01   4.1800      0.10000       7.3200      -7.3200    /
