101 'GENCLS' 1  0.000000  0.000000  /
102 'GENCLS' 1  6.1750000  0.05  /