    101 'GENCLS' 1     8.0000      0.10000E-01  /
    101 'TGOV1'  1    0.50000E-01  0.50000E-01   3.1800      0.30000
          1.0000       3.0000       0.0000      /
    102 'GENCLS' 1     2.0000      0.10000E-01  /
    102 'GAST'   1    0.50000E-01  0.40000      0.10000       3.0000
          1.0000       2.0000       3.1800       0.0000      0.40000      /
