  1     'GENROU' 1    8    0.03   0.4  0.05  6.5  0  1.8  1.7   0.30  0.55  0.25    0.2  0.0      0.0 /   
  2     'GENROU' 1    8    0.03   0.4  0.05  6.5  0  1.8  1.7   0.30  0.55  0.25    0.2  0.0      0.0 /  
  3     'GENROU' 1    8    0.03   0.4  0.05  6.175  0  1.8  1.7   0.30  0.55  0.25    0.2  0.0      0.0 /   
  4     'GENROU' 1    8    0.03   0.4  0.05  6.175  0  1.8  1.7   0.30  0.55  0.25    0.2  0.0      0.0 /  
  1     'SEXS'  1    0.10000     10.000       100.00      0.10000   0.0000  5.0000  /
  2     'SEXS'  1    0.10000     10.000       100.00      0.10000   0.0000  5.0000  /
  3     'SEXS'  1    0.10000     10.000       100.00      0.10000   0.0000  5.0000  /
  4     'SEXS'  1    0.10000     10.000       100.00      0.10000   0.0000  5.0000  /
  1    'HYGOV'  1    0.04  0.5       1.0      0.05   0.20   0.10  1.0   0.00   1  1.0  0.0   0.0 / 
  2    'HYGOV'  1    0.04  0.5       1.0      0.05   0.20   0.10  1.0   0.00   1  1.0  0.0   0.0 / 
  3    'HYGOV'  1    0.04  0.5       1.0      0.05   0.20   0.10  1.0   0.00   1  1.0  0.0   0.0 / 
  4    'HYGOV'  1    0.04  0.5       1.0      0.05   0.20   0.10  1.0   0.00   1  1.0  0.0   0.0 / 