0,   100.00,  32, 0, 1, 60.00     / PSS(R)E 32 RAW created by rawd32  WED, OCT 06 2021  16:20
THIS IS A REDUCED WECC 240-BUS POWER SYSTEM MODEL REFLECTING
REFERENCE: H. YUAN, R. S. BISWAS, J. TAN AND Y. ZHANG, "DEVE
  1001,'FOURCORN    ', 500.0000,1,   1,   3,   1,1.03400,   5.6908
  1002,'FOURCORN    ', 345.0000,1,   1,   3,   1,1.01400,   8.4855
  1003,'FOURCORN    ', 230.0000,1,   1,  10,   1,0.97318,  -0.1750
  1004,'SAN JUAN    ', 345.0000,1,   1,  10,   1,1.03000,  18.9298
  1032,'FCNGN4CC    ',  20.0000,2,   1,  10,   1,1.01391,   9.0673
  1034,'SJUAN G4    ',  20.0000,2,   1,  10,   1,1.03340,  20.5476
  1101,'CORONADO    ', 500.0000,1,   1,   3,   1,1.01000, -13.4870
  1102,'CHOLLA      ', 345.0000,1,   1,   3,   1,0.99462,  -4.6798
  1131,'CORONADO    ',  20.0000,2,   1,   3,   1,1.00946, -12.7581
  1201,'MOENKOPI    ', 500.0000,1,   1,   3,   1,1.09134,  -6.5262
  1202,'NAVAJO      ', 500.0000,1,   1,   3,   1,1.08000,  -3.7735
  1232,'NAVAJO 2    ',  20.0000,2,   1,   3,   1,1.07990,  -2.9420
  1301,'MEAD        ', 500.0000,1,   1,   3,   1,1.04500,  -9.7787
  1302,'H ALLEN     ', 500.0000,1,   1,   9,   1,1.02444, -11.5864
  1303,'H ALLEN     ', 345.0000,1,   1,   9,   1,1.00500, -15.1216
  1331,'HOOVER      ',  20.0000,2,   1,   3,   1,1.04505,  -8.6981
  1333,'H ALLEN     ',  20.0000,2,   1,   9,   1,1.00792, -13.6662
  1401,'PALOVRDE    ', 500.0000,1,   1,   3,   1,1.03500, -14.6904
  1402,'WESTWING    ', 500.0000,1,   1,   3,   1,1.05894, -20.2657
  1403,'PARKER      ', 230.0000,1,   1,   3,   1,1.03527, -14.3155
  1431,'PALOVRD2    ',  20.0000,2,   1,   3,   1,1.04004, -12.3380
  2000,'MEXICO      ', 230.0000,1,   4,   7,   1,1.00000, -16.6941
  2030,'MEXICO      ',  20.0000,2,   4,   7,   1,1.00135, -15.9908
  2100,'IMPERIAL    ', 230.0000,1,   2,   2,   1,1.03500, -12.3702
  2130,'IMPERIAL    ',  20.0000,2,   2,   2,   1,1.03554, -12.0150
  2201,'MIGUEL      ', 500.0000,1,   2,   2,   1,0.99374, -26.4363
  2202,'MIGUEL      ', 230.0000,1,   2,   2,   1,0.99067, -27.6259
  2203,'MISSION     ', 230.0000,1,   2,   2,   1,1.00500, -27.8522
  2233,'MISSION     ',  20.0000,2,   2,   2,   1,1.00686, -27.5711
  2301,'IMPRLVLY    ', 500.0000,1,   2,   2,   1,1.03559, -14.8946
  2302,'IMPRLVLY    ', 230.0000,1,   2,   2,   1,1.03500, -13.8026
  2332,'IMPRLVLY    ',  20.0000,2,   2,   2,   1,1.03520, -13.5678
  2400,'DEVERS      ', 500.0000,1,   2,   2,   1,1.02954, -19.7039
  2401,'LUGO        ', 500.0000,1,   2,   2,   1,1.05004, -13.6256
  2402,'MIRALOMA    ', 500.0000,1,   2,   2,   1,1.03176, -17.9323
  2403,'VALLEY      ', 500.0000,1,   2,   2,   1,1.02709, -22.3159
  2404,'VINCENT     ', 500.0000,1,   2,   2,   1,1.03917,  -9.8698
  2405,'SYLMAR S    ', 230.0000,1,   2,   2,   1,1.01146, -10.9763
  2406,'EAGLROCK    ', 230.0000,1,   2,   2,   1,1.00777, -14.8970
  2407,'LITEHIPE    ', 230.0000,1,   2,   2,   1,0.97489, -20.8264
  2408,'MESA CAL    ', 230.0000,1,   2,   2,   1,1.00900,  -9.1083
  2409,'MIRALOMA    ', 230.0000,1,   2,   2,   1,1.02000, -18.7059
  2410,'PARDEE      ', 230.0000,1,   2,   2,   1,1.00710, -14.6279
  2411,'VINCENT     ', 230.0000,1,   2,   2,   1,1.02033, -11.3543
  2431,'LUGO        ',  20.0000,2,   2,   2,   1,1.05000, -13.5996
  2434,'VINCENT     ',  20.0000,2,   2,   2,   1,1.02000, -11.3268
  2438,'MESA CAL    ',  20.0000,2,   2,   2,   1,1.00981,  -7.6844
  2439,'MIRALOMA    ',  20.0000,2,   2,   2,   1,1.01976, -18.6508
  2501,'SERRANO     ', 500.0000,1,   2,   2,   1,1.02695, -20.1984
  2502,'SERRANO     ', 230.0000,1,   2,   2,   1,1.02322, -21.5331
  2503,'S.ONOFRE    ', 230.0000,1,   2,   2,   1,1.00900, -23.4958
  2533,'S.ONOFRE    ',  20.0000,2,   2,   2,   1,1.00959, -22.9618
  2600,'ADELANTO    ', 500.0000,1,   2,   2,   1,1.05580,  -9.2972
  2601,'RINALDI     ', 500.0000,1,   2,   2,   1,1.04795,  -9.7468
  2602,'STA E       ', 500.0000,1,   2,   2,   1,1.02252,  -9.3645
  2603,'VICTORVL    ', 500.0000,1,   2,   2,   1,1.05658,  -9.9565
  2604,'INTERMT     ', 345.0000,1,   2,   2,   1,1.03000,  -3.1239
  2605,'STA B1      ', 287.0000,1,   2,   2,   1,1.02097,  -7.1721
  2606,'STA B2      ', 287.0000,1,   2,   2,   1,1.02097,  -7.1721
  2607,'VICTORVL    ', 287.0000,1,   2,   2,   1,1.04734,  -9.0263
  2608,'CASTAIC     ', 230.0000,1,   2,   2,   1,1.01500,  -9.3680
  2609,'GLENDAL     ', 230.0000,1,   2,   2,   1,0.99972,  -7.6504
  2610,'HAYNES      ', 230.0000,1,   2,   2,   1,1.00400,   6.5288
  2611,'OLIVE       ', 230.0000,1,   2,   2,   1,1.01500,  -9.5611
  2612,'RINALDI     ', 230.0000,1,   2,   2,   1,1.01357,  -9.9270
  2613,'RIVER       ', 230.0000,1,   2,   2,   1,0.99477,  -4.1532
  2614,'STA BLD     ', 230.0000,1,   2,   2,   1,1.00216,  -5.7303
  2615,'STA E       ', 230.0000,1,   2,   2,   1,1.00540,  -9.0775
  2616,'STA F       ', 230.0000,1,   2,   2,   1,0.99670,  -4.4872
  2617,'STA G       ', 230.0000,1,   2,   2,   1,0.99770,  -6.2168
  2618,'STA J       ', 230.0000,1,   2,   2,   1,1.01112, -10.9246
  2619,'SYLMARLA    ', 230.0000,1,   2,   2,   1,1.01253,  -9.6231
  2620,'VALLEY      ', 230.0000,1,   2,   2,   1,1.00929,  -9.9844
  2621,'STA B       ', 138.0000,1,   2,   2,   1,1.01278,  -6.8347
  2630,'HAYNES3G    ',  20.0000,2,   2,   2,   1,1.00486,   7.1768
  2631,'OLIVE       ',  20.0000,2,   2,   2,   1,1.01516,  -9.4966
  2634,'INTERM1G    ',  20.0000,2,   2,   2,   1,1.02988,  -2.7088
  2637,'OWENS G     ',  20.0000,2,   2,   2,   1,1.01377,  -9.9039
  2638,'CASTAI4G    ',  20.0000,2,   2,   2,   1,1.01504,  -9.3124
  2901,'ELDORADO    ', 500.0000,1,   2,   2,   1,1.10739,  -9.9193
  2902,'MOHAVE      ', 500.0000,1,   2,   2,   1,1.11741, -11.1206
  3101,'EMBRCDRD    ', 230.0000,1,   2,   2,   1,0.98132,  -7.7663
  3102,'MARTIN      ', 230.0000,1,   2,   2,   1,0.98603,  -6.6232
  3103,'SANMATEO    ', 230.0000,1,   2,   2,   1,0.99272,  -4.4919
  3104,'MARTIN      ', 115.0000,1,   2,   2,   1,0.98581, -11.4846
  3105,'POTRERO     ', 115.0000,1,   2,   2,   1,1.00000, -11.4952
  3133,'SANMATEO    ',  20.0000,2,   2,   2,   1,0.99266,  -4.4829
  3135,'POTRERO     ',  20.0000,2,   2,   2,   1,1.00043, -11.4322
  3201,'C.COSTA     ', 230.0000,1,   2,   2,   1,1.00365,  -4.5647
  3202,'MORAGA      ', 230.0000,1,   2,   2,   1,1.00233,  -4.1197
  3203,'NEWARK      ', 230.0000,1,   2,   2,   1,1.00057,  -4.2125
  3204,'PITSBURG    ', 230.0000,1,   2,   2,   1,1.01000,   0.1542
  3205,'SOBRANTE    ', 230.0000,1,   2,   2,   1,1.00082,  -2.5111
  3234,'PITSBURG    ',  20.0000,2,   2,   2,   1,1.01207,   1.2736
  3301,'METCALF     ', 500.0000,1,   2,   2,   1,1.01134,  -4.7100
  3302,'JEFFERSN    ', 230.0000,1,   2,   2,   1,0.98430,  -7.6554
  3303,'METCALF     ', 230.0000,1,   2,   2,   1,1.00000,  -5.4612
  3304,'MONTAVIS    ', 230.0000,1,   2,   2,   1,0.98986,  -7.0294
  3305,'RAVENSWD    ', 230.0000,1,   2,   2,   1,0.99495,  -4.7748
  3333,'METCALF     ',  20.0000,2,   2,   2,   1,1.00080,  -5.2291
  3401,'GREGG       ', 230.0000,1,   2,   2,   1,0.96692, -13.8274
  3402,'HELMS PP    ', 230.0000,1,   2,   2,   1,0.96905, -13.8410
  3403,'MC CALL     ', 230.0000,1,   2,   2,   1,1.00000,  -1.5077
  3404,'PANOCHE     ', 230.0000,1,   2,   2,   1,0.98844,  -8.6323
  3405,'WILSON      ', 230.0000,1,   2,   2,   1,0.96256, -15.5632
  3432,'HELMS PP    ',  20.0000,1,   2,   2,   1,0.96905, -13.8410
  3433,'MC CALL     ',  20.0000,2,   2,   2,   1,1.00024,  -1.1565
  3501,'FULTON      ', 230.0000,1,   2,   2,   1,1.00000,   1.6262
  3531,'FULTON      ',  20.0000,2,   2,   2,   1,1.00036,   1.9381
  3601,'HUMBOLDT    ', 115.0000,1,   2,   2,   1,1.01500,  -3.9140
  3631,'HUMBOLDT    ',  20.0000,2,   2,   2,   1,1.01477,  -3.8871
  3701,'SUMMIT      ', 115.0000,1,   1,   9,   1,1.01642, -20.7834
  3731,'SUMMIT      ',  20.0000,2,   1,   9,   1,1.01582, -20.7218
  3801,'DIABLO      ', 500.0000,1,   2,   2,   1,1.04900,   0.2841
  3802,'GATES       ', 500.0000,1,   2,   2,   1,1.03711,  -5.7002
  3803,'MIDWAY      ', 500.0000,1,   2,   2,   1,1.04618,  -7.0636
  3804,'GATES       ', 230.0000,1,   2,   2,   1,1.00239,  -7.0866
  3805,'MIDWAY      ', 230.0000,1,   2,   2,   1,1.03500,  -6.6055
  3806,'MORROBAY    ', 230.0000,1,   2,   2,   1,1.01900,  -3.4817
  3831,'DIABLO1     ',  20.0000,2,   2,   2,   1,1.04876,   0.8330
  3835,'MIDWAY      ',  20.0000,2,   2,   2,   1,1.03528,  -6.5042
  3836,'MORROBAY    ',  20.0000,2,   2,   2,   1,1.01896,  -3.2943
  3891,'GATES1      ', 500.0000,1,   2,   2,   1,1.05217,  -9.1886
  3892,'MIDWAY1     ', 500.0000,1,   2,   2,   1,1.03873,  -3.8623
  3893,'MIDWAY2     ', 500.0000,1,   2,   2,   1,1.03352, -13.0849
  3894,'MIDWAY3     ', 500.0000,1,   2,   2,   1,1.03852,  -3.8090
  3895,'MIDWAY4     ', 500.0000,1,   2,   2,   1,1.03371, -13.1058
  3896,'MIDWAY5     ', 500.0000,1,   2,   2,   1,1.03891,  -3.6507
  3897,'MIDWAY6     ', 500.0000,1,   2,   2,   1,1.03562, -12.9437
  3901,'LOSBANOS    ', 500.0000,1,   2,   2,   1,1.02993,  -5.9768
  3902,'MOSSLAND    ', 500.0000,1,   2,   2,   1,1.00000,  -2.2358
  3903,'TESLA       ', 500.0000,1,   2,   2,   1,1.03476,  -5.2680
  3904,'VACA-DIX    ', 500.0000,1,   2,   2,   1,1.03426,  -5.4417
  3905,'TABLE MT    ', 500.0000,1,   2,   2,   1,1.04939,  -6.1223
  3906,'ROUND MT    ', 500.0000,1,   2,   2,   1,1.07000,  -5.4625
  3907,'BELLOTA     ', 230.0000,1,   2,   2,   1,0.97023, -13.7164
  3908,'BRIGHTON    ', 230.0000,1,   2,   2,   1,0.97711, -16.6058
  3909,'COLGATE     ', 230.0000,1,   2,   2,   1,0.99014, -17.7828
  3910,'CORTINA     ', 230.0000,1,   2,   2,   1,0.97962, -12.9724
  3911,'COTWDPGE    ', 230.0000,1,   2,   2,   1,1.04304,  -4.1078
  3912,'GLENN       ', 230.0000,1,   2,   2,   1,1.02455, -10.1775
  3913,'GOLDHILL    ', 230.0000,1,   2,   2,   1,0.98989, -12.7171
  3914,'IGNACIO     ', 230.0000,1,   2,   2,   1,0.99136,  -2.1281
  3915,'LAKEVILE    ', 230.0000,1,   2,   2,   1,0.99704,  -3.3747
  3916,'LOGAN CR    ', 230.0000,1,   2,   2,   1,1.02221,  -9.9311
  3917,'LOSBANOS    ', 230.0000,1,   2,   2,   1,1.01016,  -8.3006
  3918,'MOSSLAND    ', 230.0000,1,   2,   2,   1,0.99386,  -6.0032
  3919,'PALERMO     ', 230.0000,1,   2,   2,   1,0.99889, -16.6287
  3920,'RIO OSO     ', 230.0000,1,   2,   2,   1,0.99350, -16.3315
  3921,'ROUND MT    ', 230.0000,1,   2,   2,   1,1.07000,   1.5362
  3922,'TABLE MT    ', 230.0000,1,   2,   2,   1,1.01784, -12.7280
  3923,'TESLA       ', 230.0000,1,   2,   2,   1,1.01765,  -1.0241
  3924,'VACA-DIX    ', 230.0000,1,   2,   2,   1,1.00955,  -5.4431
  3925,'COTWDPGE    ', 115.0000,1,   2,   2,   1,1.02989,  -4.0457
  3926,'RIO OSO     ', 115.0000,1,   2,   2,   1,1.00448, -19.6138
  3931,'ROUND MT    ',  20.0000,2,   2,   2,   1,1.07065,   1.8980
  3932,'MOSSLAND    ',  20.0000,2,   2,   2,   1,0.99876,  -1.8472
  3933,'TESLA       ',  20.0000,3,   2,   2,   1,1.02000,   0.0000
  4001,'MALIN       ', 500.0000,1,   3,  11,   1,1.08000,  -5.8857
  4002,'SUMMER L    ', 500.0000,1,   3,  11,   1,1.11383,  -3.6188
  4003,'BURNS       ', 500.0000,1,   3,  11,   1,1.12773,   4.2956
  4004,'GRIZZLY     ', 500.0000,1,   3,  11,   1,1.10128,  -5.6487
  4005,'JOHN DAY    ', 500.0000,1,   3,  11,   1,1.08000,  -5.2584
  4006,'BIG EDDY    ', 500.0000,1,   3,  11,   1,1.07595,  -8.8761
  4007,'CELILOCA    ', 500.0000,1,   3,  11,   1,1.07595,  -9.0492
  4008,'MALIN       ', 345.0000,1,   3,  11,   1,1.08166,  -8.0947
  4009,'BIG EDDY    ', 230.0000,1,   3,  11,   1,1.08000, -11.3492
  4010,'CELILO      ', 230.0000,1,   3,  11,   1,1.07871, -11.5900
  4031,'MALIN       ',  20.0000,2,   3,  11,   1,1.07620,  -5.5024
  4035,'JOHN DAY    ',  20.0000,2,   3,  11,   1,1.07769,  -4.6957
  4039,'DALLES21    ',  20.0000,2,   3,  13,   1,1.08393, -10.7997
  4090,'MALIN1      ', 500.0000,1,   3,  11,   1,1.11045,  -3.9479
  4091,'GRIZZLY1    ', 500.0000,1,   3,  11,   1,1.11047,  -4.8112
  4092,'GRIZZLY2    ', 500.0000,1,   3,  11,   1,1.09408,  -5.8747
  4093,'GRIZZLY3    ', 500.0000,1,   3,  11,   1,1.09231,  -5.9069
  4094,'GRIZZLY4    ', 500.0000,1,   3,  11,   1,1.10587,  -5.6632
  4095,'GRIZZLY5    ', 500.0000,1,   3,  11,   1,1.09241,  -5.8878
  4096,'GRIZZLY6    ', 500.0000,1,   3,  11,   1,1.09043,  -5.9223
  4097,'GRIZZLY7    ', 500.0000,1,   3,  11,   1,1.10563,  -5.6611
  4101,'COULEE      ', 500.0000,1,   3,  13,   1,1.12800,  11.3583
  4102,'HANFORD     ', 500.0000,1,   3,  13,   1,1.09600,   4.0896
  4103,'BELL        ', 500.0000,1,   3,  13,   1,1.08071,  -3.6446
  4104,'BELL        ', 230.0000,1,   3,  13,   1,1.05171, -14.6158
  4131,'COULEE      ',  20.0000,2,   3,  13,   1,1.13099,  13.2503
  4132,'HANFORD     ',  20.0000,2,   3,  13,   1,1.09654,   5.7252
  4201,'NORTH       ', 500.0000,1,   3,  13,   1,1.12000,   4.1782
  4202,'WCASCADE    ', 500.0000,1,   3,  13,   1,1.06000,  -8.1657
  4203,'WILLAMET    ', 500.0000,1,   3,  13,   1,1.02930, -11.4193
  4204,'MERIDIAN    ', 500.0000,1,   3,  13,   1,1.06189,  -7.6781
  4231,'NORTH G3    ',  20.0000,2,   3,  13,   1,1.12632,   5.1024
  4232,'WCASCADE    ',  20.0000,2,   3,  13,   1,1.05994,  -7.9394
  5001,'CANADA      ', 500.0000,1,   3,   4,   1,1.05000,  -5.6701
  5002,'CANALB      ', 500.0000,1,   3,   1,   1,1.05500,  -6.8823
  5003,'CA230TO     ', 230.0000,1,   3,   1,   1,1.05368, -10.3588
  5004,'CA230       ', 230.0000,1,   3,   4,   1,1.08674, -12.5327
  5031,'CANAD G1    ',  20.0000,2,   3,   4,   1,1.05458,  -3.9112
  5032,'CMAIN GM    ',  20.0000,2,   3,   1,   1,1.06140,  -4.4661
  6101,'MIDPOINT    ', 500.0000,1,   3,   6,   1,1.06601,  14.2390
  6102,'MIDPOINT    ', 345.0000,1,   3,   6,   1,1.03000,  17.0480
  6103,'BORAH       ', 345.0000,1,   3,   6,   1,1.01353,  15.2907
  6104,'BORAH       ', 230.0000,1,   3,   6,   1,0.98423,   3.0910
  6132,'MIDPOINT    ',  20.0000,2,   3,   6,   1,1.02634,  18.0681
  6201,'COLSTRP     ', 500.0000,1,   3,   8,   1,1.06000,   7.5256
  6202,'GARRISON    ', 500.0000,1,   3,   8,   1,1.09393,   2.8694
  6203,'COLSTRP     ', 230.0000,1,   3,   8,   1,1.00559,   6.6646
  6204,'GARRISON    ', 230.0000,1,   3,   8,   1,1.04876,   3.3010
  6205,'MONTANA     ', 230.0000,1,   3,   8,   1,1.05000,  13.2022
  6231,'COLSTRP     ',  20.0000,2,   3,   8,   1,1.05920,   7.7629
  6235,'MONTA G1    ',  20.0000,2,   3,   8,   1,1.05075,  13.5687
  6301,'BRIDGER     ', 345.0000,1,   3,  14,   1,1.01652,  16.5723
  6302,'LARAMIE     ', 345.0000,1,   3,  14,   1,1.01008, -32.0678
  6303,'BRIDGER2    ', 230.0000,1,   3,  14,   1,1.03000,  29.8809
  6304,'LARAMIE     ', 230.0000,1,   3,  14,   1,0.99660, -19.5488
  6305,'NAUGHTON    ', 230.0000,1,   3,  14,   1,1.06000,  30.4171
  6333,'BRIDGER     ',  20.0000,2,   3,  14,   1,1.03309,  30.8925
  6335,'NAUGHT      ',  20.0000,2,   3,  14,   1,1.06374,  31.1358
  6401,'TRACYSPP    ', 345.0000,1,   1,   9,   1,1.08874, -19.2816
  6402,'SUMITSPP    ', 115.0000,1,   1,   9,   1,1.04894, -21.1045
  6403,'VALMY       ', 345.0000,1,   1,   9,   1,1.11000,   3.8785
  6404,'GONDER      ', 345.0000,1,   1,   9,   1,1.08547,  -4.1102
  6433,'VALMY       ',  20.0000,2,   1,   9,   1,1.11091,   4.1851
  6501,'BENLOMND    ', 345.0000,1,   3,  12,   1,1.02187,  -0.1599
  6502,'CAMP WIL    ', 345.0000,1,   3,  12,   1,1.01983,  -0.9288
  6503,'EMERY       ', 345.0000,1,   3,  12,   1,1.06500,  10.4528
  6504,'MONA        ', 345.0000,1,   3,  12,   1,1.02236,  -0.9319
  6505,'PINTO       ', 345.0000,1,   3,  12,   1,1.07136,   9.0164
  6506,'PINTO PS    ', 345.0000,1,   3,  12,   1,1.05902,   8.7772
  6507,'SIGURD      ', 345.0000,1,   3,  12,   1,1.05136,   0.4979
  6508,'SPAN FRK    ', 345.0000,1,   3,  12,   1,1.02795,   1.7833
  6509,'TERMINAL    ', 345.0000,1,   3,  12,   1,1.02059,  -0.9093
  6510,'BENLOMND    ', 230.0000,1,   3,  12,   1,0.98784,   0.6404
  6533,'EMERY       ',  20.0000,2,   3,  12,   1,1.06645,  11.2966
  7001,'COLOEAST    ', 345.0000,1,   3,   5,   1,1.02000, -33.6138
  7002,'CRAIG       ', 345.0000,1,   3,   5,   1,1.01500, -30.4616
  7031,'COLOEAST    ',  20.0000,2,   3,   5,   1,1.02579, -32.3627
  7032,'CRAIG       ',  20.0000,2,   3,   5,   1,1.01534, -29.7005
  8001,'OLINDA      ', 500.0000,1,   2,   2,   1,1.06480,  -6.0032
  8002,'TRACY       ', 500.0000,1,   2,   2,   1,1.04200,  -7.7037
  8003,'COTWDWAP    ', 230.0000,1,   2,   2,   1,1.07500,  -3.4474
  8004,'RNCHSECO    ', 230.0000,1,   2,   2,   1,1.00000, -11.7184
  8005,'TRACYPMP    ', 230.0000,1,   2,   2,   1,1.00305, -13.3930
  8033,'COTWDWAP    ',  20.0000,2,   2,   2,   1,1.07619,  -3.1547
  8034,'RNCHSECO    ',  20.0000,2,   2,   2,   1,1.00224, -10.7543
 0 /End of Bus data, Begin Load data
  1002,'1 ',1,   1,   3,     0.000,     0.000,   223.710,     0.000,     0.000,   583.546,   1,1
  1003,'1 ',1,   1,  10,     0.000,     0.000,  2212.664,     0.000,     0.000,  -387.354,   1,1
  1004,'1 ',1,   1,  10,     0.000,     0.000,  1007.718,     0.000,     0.000,    -5.204,   1,1
  1101,'1 ',1,   1,   3,     0.000,     0.000,  4482.541,     0.000,     0.000,   134.344,   1,1
  1102,'1 ',1,   1,   3,     0.000,     0.000,   179.873,     0.000,     0.000,   -23.907,   1,1
  1201,'1 ',1,   1,   3,     0.000,     0.000,   153.984,     0.000,     0.000,     1.711,   1,1
  1202,'1 ',1,   1,   3,     0.000,     0.000,   810.750,     0.000,     0.000,  -246.169,   1,1
  1301,'1 ',1,   1,   3,     0.000,     0.000,  2588.305,     0.000,     0.000,  -323.093,   1,1
  1302,'1 ',1,   1,   9,     0.000,     0.000,    17.088,     0.000,     0.000,    -2.183,   1,1
  1303,'1 ',1,   1,   9,     0.000,     0.000,  6204.116,     0.000,     0.000,  -805.276,   1,1
  1401,'1 ',1,   1,   3,     0.000,     0.000,  6314.529,     0.000,     0.000, -1423.225,   1,1
  1402,'1 ',1,   1,   3,     0.000,     0.000,  5074.202,     0.000,     0.000,   536.538,   1,1
  2000,'1 ',1,   4,   7,     0.000,     0.000,  2207.188,     0.000,     0.000,  -287.916,   1,1
  2100,'1 ',1,   2,   2,     0.000,     0.000,   244.479,     0.000,     0.000,   -46.066,   1,1
  2202,'1 ',1,   2,   2,     0.000,     0.000,  1413.957,     0.000,     0.000,  -249.625,   1,1
  2203,'1 ',1,   2,   2,     0.000,     0.000,  1530.047,     0.000,     0.000,  -247.960,   1,1
  2400,'1 ',1,   2,   2,     0.000,     0.000,   741.606,     0.000,     0.000,   -65.877,   1,1
  2401,'1 ',1,   2,   2,     0.000,     0.000,   756.558,     0.000,     0.000,   -85.945,   1,1
  2402,'1 ',1,   2,   2,     0.000,     0.000,   944.185,     0.000,     0.000,   -69.616,   1,1
  2403,'1 ',1,   2,   2,     0.000,     0.000,   924.912,     0.000,     0.000,   -33.229,   1,1
  2405,'1 ',1,   2,   2,     0.000,     0.000,   734.331,     0.000,     0.000,   -20.175,   1,1
  2406,'1 ',1,   2,   2,     0.000,     0.000,   659.215,     0.000,     0.000,    36.185,   1,1
  2407,'1 ',1,   2,   2,     0.000,     0.000,  1610.419,     0.000,     0.000,    35.064,   1,1
  2408,'1 ',1,   2,   2,     0.000,     0.000,  1554.955,     0.000,     0.000,    64.200,   1,1
  2409,'1 ',1,   2,   2,     0.000,     0.000,  1413.334,     0.000,     0.000,    74.998,   1,1
  2410,'1 ',1,   2,   2,     0.000,     0.000,  1411.456,     0.000,     0.000,   -51.802,   1,1
  2411,'1 ',1,   2,   2,     0.000,     0.000,   959.465,     0.000,     0.000,   -65.677,   1,1
  2502,'1 ',1,   2,   2,     0.000,     0.000,  2087.843,     0.000,     0.000,    79.306,   1,1
  2503,'1 ',1,   2,   2,     0.000,     0.000,  1646.515,     0.000,     0.000,  -178.564,   1,1
  2600,'1 ',1,   2,   2,     0.000,     0.000, -1591.978,     0.000,     0.000,     0.000,   1,1
  2602,'1 ',1,   2,   2,     0.000,     0.000,    87.531,     0.000,     0.000,   -11.190,   1,1
  2604,'1 ',1,   2,   2,     0.000,     0.000,  1791.945,     0.000,     0.000,     0.000,   1,1
  2608,'1 ',1,   2,   2,     0.000,     0.000,    88.030,     0.000,     0.000,   -11.318,   1,1
  2609,'1 ',1,   2,   2,     0.000,     0.000,   120.790,     0.000,     0.000,   -24.191,   1,1
  2610,'1 ',1,   2,   2,     0.000,     0.000,    88.994,     0.000,     0.000,   -11.567,   1,1
  2611,'1 ',1,   2,   2,     0.000,     0.000,    88.030,     0.000,     0.000,   -11.318,   1,1
  2612,'1 ',1,   2,   2,     0.000,     0.000,   106.667,     0.000,     0.000,   -21.743,   1,1
  2613,'1 ',1,   2,   2,     0.000,     0.000,   287.725,     0.000,     0.000,   -58.812,   1,1
  2614,'1 ',1,   2,   2,     0.000,     0.000,   123.152,     0.000,     0.000,   -24.956,   1,1
  2615,'1 ',1,   2,   2,     0.000,     0.000,   718.654,     0.000,     0.000,  -117.014,   1,1
  2616,'1 ',1,   2,   2,     0.000,     0.000,   104.990,     0.000,     0.000,   -21.629,   1,1
  2617,'1 ',1,   2,   2,     0.000,     0.000,   108.473,     0.000,     0.000,   -22.485,   1,1
  2618,'1 ',1,   2,   2,     0.000,     0.000,   784.705,     0.000,     0.000,     5.422,   1,1
  2619,'1 ',1,   2,   2,     0.000,     0.000, -2466.528,     0.000,     0.000,     0.000,   1,1
  2620,'1 ',1,   2,   2,     0.000,     0.000,   181.756,     0.000,     0.000,   -15.454,   1,1
  2621,'1 ',1,   2,   2,     0.000,     0.000,   209.415,     0.000,     0.000,    55.132,   1,1
  3101,'1 ',1,   2,   2,     0.000,     0.000,   313.580,     0.000,     0.000,   -49.549,   1,1
  3102,'1 ',1,   2,   2,     0.000,     0.000,   145.724,     0.000,     0.000,   -23.131,   1,1
  3103,'1 ',1,   2,   2,     0.000,     0.000,   380.419,     0.000,     0.000,   -54.591,   1,1
  3104,'1 ',1,   2,   2,     0.000,     0.000,   283.512,     0.000,     0.000,   -37.304,   1,1
  3105,'1 ',1,   2,   2,     0.000,     0.000,   215.372,     0.000,     0.000,   -44.182,   1,1
  3201,'1 ',1,   2,   2,     0.000,     0.000,   417.176,     0.000,     0.000,   -88.465,   1,1
  3202,'1 ',1,   2,   2,     0.000,     0.000,   528.943,     0.000,     0.000,   -75.520,   1,1
  3203,'1 ',1,   2,   2,     0.000,     0.000,   592.543,     0.000,     0.000,  -143.183,   1,1
  3204,'1 ',1,   2,   2,     0.000,     0.000,   595.949,     0.000,     0.000,   -84.091,   1,1
  3205,'1 ',1,   2,   2,     0.000,     0.000,   492.201,     0.000,     0.000,   -70.216,   1,1
  3302,'1 ',1,   2,   2,     0.000,     0.000,   316.377,     0.000,     0.000,   -80.011,   1,1
  3303,'1 ',1,   2,   2,     0.000,     0.000,   562.870,     0.000,     0.000,  -135.643,   1,1
  3304,'1 ',1,   2,   2,     0.000,     0.000,   485.777,     0.000,     0.000,  -112.963,   1,1
  3305,'1 ',1,   2,   2,     0.000,     0.000,   389.689,     0.000,     0.000,   -55.787,   1,1
  3401,'1 ',1,   2,   2,     0.000,     0.000,   523.259,     0.000,     0.000,  -132.931,   1,1
  3403,'1 ',1,   2,   2,     0.000,     0.000,   464.372,     0.000,     0.000,   -66.225,   1,1
  3404,'1 ',1,   2,   2,     0.000,     0.000,   400.370,     0.000,     0.000,   -57.509,   1,1
  3405,'1 ',1,   2,   2,     0.000,     0.000,   423.026,     0.000,     0.000,   -62.878,   1,1
  3501,'1 ',1,   2,   2,     0.000,     0.000,   562.514,     0.000,     0.000,   -80.114,   1,1
  3601,'1 ',1,   2,   2,     0.000,     0.000,    92.975,     0.000,     0.000,   -12.968,   1,1
  3701,'1 ',1,   1,   9,     0.000,     0.000,   317.051,     0.000,     0.000,   -15.847,   1,1
  3801,'1 ',1,   2,   2,     0.000,     0.000,   164.062,     0.000,     0.000,   -38.776,   1,1
  3804,'1 ',1,   2,   2,     0.000,     0.000,   201.824,     0.000,     0.000,   -50.058,   1,1
  3805,'1 ',1,   2,   2,     0.000,     0.000,   434.251,     0.000,     0.000,  -137.035,   1,1
  3806,'1 ',1,   2,   2,     0.000,     0.000,   255.767,     0.000,     0.000,   -35.854,   1,1
  3902,'1 ',1,   2,   2,     0.000,     0.000,   137.692,     0.000,     0.000,   -34.423,   1,1
  3903,'1 ',1,   2,   2,     0.000,     0.000,   190.745,     0.000,     0.000,   -26.909,   1,1
  3907,'1 ',1,   2,   2,     0.000,     0.000,   430.380,     0.000,     0.000,   -60.984,   1,1
  3908,'1 ',1,   2,   2,     0.000,     0.000,   186.870,     0.000,     0.000,   -23.908,   1,1
  3909,'1 ',1,   2,   2,     0.000,     0.000,   159.388,     0.000,     0.000,   -38.425,   1,1
  3910,'1 ',1,   2,   2,     0.000,     0.000,   228.437,     0.000,     0.000,   -34.143,   1,1
  3911,'1 ',1,   2,   2,     0.000,     0.000,   204.367,     0.000,     0.000,   -40.227,   1,1
  3912,'1 ',1,   2,   2,     0.000,     0.000,   156.919,     0.000,     0.000,     0.570,   1,1
  3913,'1 ',1,   2,   2,     0.000,     0.000,   301.003,     0.000,     0.000,   -40.262,   1,1
  3914,'1 ',1,   2,   2,     0.000,     0.000,   207.245,     0.000,     0.000,   -48.345,   1,1
  3915,'1 ',1,   2,   2,     0.000,     0.000,   230.849,     0.000,     0.000,   -48.836,   1,1
  3916,'1 ',1,   2,   2,     0.000,     0.000,   139.766,     0.000,     0.000,     0.000,   1,1
  3917,'1 ',1,   2,   2,     0.000,     0.000,   214.158,     0.000,     0.000,   -39.517,   1,1
  3918,'1 ',1,   2,   2,     0.000,     0.000,   289.544,     0.000,     0.000,   -68.957,   1,1
  3919,'1 ',1,   2,   2,     0.000,     0.000,   171.670,     0.000,     0.000,   -23.175,   1,1
  3920,'1 ',1,   2,   2,     0.000,     0.000,   158.827,     0.000,     0.000,   -22.302,   1,1
  3921,'1 ',1,   2,   2,     0.000,     0.000,   126.917,     0.000,     0.000,   -27.373,   1,1
  3922,'1 ',1,   2,   2,     0.000,     0.000,   231.814,     0.000,     0.000,   -29.670,   1,1
  3923,'1 ',1,   2,   2,     0.000,     0.000,   353.452,     0.000,     0.000,   -58.418,   1,1
  3924,'1 ',1,   2,   2,     0.000,     0.000,   300.147,     0.000,     0.000,   -42.707,   1,1
  3926,'1 ',1,   2,   2,     0.000,     0.000,   244.214,     0.000,     0.000,   -15.453,   1,1
  4002,'1 ',1,   3,  11,     0.000,     0.000,   154.505,     0.000,     0.000,   -18.455,   1,1
  4004,'1 ',1,   3,  11,     0.000,     0.000,   248.180,     0.000,     0.000,   -29.723,   1,1
  4005,'1 ',1,   3,  11,     0.000,     0.000,   444.550,     0.000,     0.000,  -134.961,   1,1
  4008,'1 ',1,   3,  11,     0.000,     0.000,   265.108,     0.000,     0.000,   -32.154,   1,1
  4009,'1 ',1,   3,  11,     0.000,     0.000,  2045.132,     0.000,     0.000,  -369.852,   1,1
  4010,'1 ',1,   3,  11,     0.000,     0.000,  2904.493,     0.000,     0.000,     0.000,   1,1
  4101,'1 ',1,   3,  13,     0.000,     0.000,   882.117,     0.000,     0.000,  -102.001,   1,1
  4102,'1 ',1,   3,  13,     0.000,     0.000,   438.548,     0.000,     0.000,   -57.162,   1,1
  4103,'1 ',1,   3,  13,     0.000,     0.000,    10.805,     0.000,     0.000,    -1.303,   1,1
  4104,'1 ',1,   3,  13,     0.000,     0.000,  2424.986,     0.000,     0.000,  -303.469,   1,1
  4201,'1 ',1,   3,  13,     0.000,     0.000,  5145.231,     0.000,     0.000,  -367.517,   1,1
  4202,'1 ',1,   3,  13,     0.000,     0.000,  4300.226,     0.000,     0.000,  -529.215,   1,1
  4203,'1 ',1,   3,  13,     0.000,     0.000,  4308.429,     0.000,     0.000,  -552.906,   1,1
  4204,'1 ',1,   3,  13,     0.000,     0.000,   949.629,     0.000,     0.000,  -115.952,   1,1
  5001,'1 ',1,   3,   4,     0.000,     0.000,  7213.383,     0.000,     0.000, -1561.338,   1,1
  5002,'1 ',1,   3,   1,     0.000,     0.000,  8534.582,     0.000,     0.000, -1055.106,   1,1
  5003,'1 ',1,   3,   1,     0.000,     0.000,   589.263,     0.000,     0.000,   -73.624,   1,1
  6102,'1 ',1,   3,   6,     0.000,     0.000,  1022.470,     0.000,     0.000,   325.457,   1,1
  6103,'1 ',1,   3,   6,     0.000,     0.000,   386.454,     0.000,     0.000,   -49.703,   1,1
  6104,'1 ',1,   3,   6,     0.000,     0.000,  1683.648,     0.000,     0.000,  -218.144,   1,1
  6201,'1 ',1,   3,   8,     0.000,     0.000,   194.170,     0.000,     0.000,   -23.903,   1,1
  6202,'1 ',1,   3,   8,     0.000,     0.000,    81.319,     0.000,     0.000,   -11.365,   1,1
  6203,'1 ',1,   3,   8,     0.000,     0.000,   609.243,     0.000,     0.000,  -143.626,   1,1
  6204,'1 ',1,   3,   8,     0.000,     0.000,   667.550,     0.000,     0.000,  -142.578,   1,1
  6205,'1 ',1,   3,   8,     0.000,     0.000,   465.984,     0.000,     0.000,   -78.317,   1,1
  6301,'1 ',1,   3,  14,     0.000,     0.000,   508.649,     0.000,     0.000,   -65.361,   1,1
  6302,'1 ',1,   3,  14,     0.000,     0.000,   588.418,     0.000,     0.000,   -76.334,   1,1
  6303,'1 ',1,   3,  14,     0.000,     0.000,   724.856,     0.000,     0.000,   -91.813,   1,1
  6305,'1 ',1,   3,  14,     0.000,     0.000,    56.823,     0.000,     0.000,   -17.579,   1,1
  6401,'1 ',1,   1,   9,     0.000,     0.000,  1628.390,     0.000,     0.000,  -206.824,   1,1
  6402,'1 ',1,   1,   9,     0.000,     0.000,   270.855,     0.000,     0.000,   -35.135,   1,1
  6403,'1 ',1,   1,   9,     0.000,     0.000,     1.980,     0.000,     0.000,    -0.221,   1,1
  6404,'1 ',1,   1,   9,     0.000,     0.000,    27.498,     0.000,     0.000,    -3.399,   1,1
  6501,'1 ',1,   3,  12,     0.000,     0.000,   193.033,     0.000,     0.000,   -62.491,   1,1
  6502,'1 ',1,   3,  12,     0.000,     0.000,  1539.327,     0.000,     0.000,  -271.901,   1,1
  6503,'1 ',1,   3,  12,     0.000,     0.000,   414.228,     0.000,     0.000,  -127.491,   1,1
  6504,'1 ',1,   3,  12,     0.000,     0.000,   293.725,     0.000,     0.000,   -37.889,   1,1
  6505,'1 ',1,   3,  12,     0.000,     0.000,     6.555,     0.000,     0.000,    -2.076,   1,1
  6507,'1 ',1,   3,  12,     0.000,     0.000,   527.834,     0.000,     0.000,    58.453,   1,1
  6508,'1 ',1,   3,  12,     0.000,     0.000,   128.991,     0.000,     0.000,   -41.365,   1,1
  6509,'1 ',1,   3,  12,     0.000,     0.000,     8.495,     0.000,     0.000,    -2.753,   1,1
  6510,'1 ',1,   3,  12,     0.000,     0.000,  1971.920,     0.000,     0.000,   111.890,   1,1