   1032 'GENROU' C     6.0000      0.50000       1.0000      0.50000E-01
          2.4100       0.0000       1.4000       1.3500      0.30000
         0.60000      0.20000      0.10000      0.30000E-01  0.40000      /
   1032 'SEXS'   C    0.10000       10.000       100.00      0.10000
          0.0000       3.0000      /
   1032 'TGOV1'  C    0.80000E-01   2.0000       1.0000       0.0000
          3.0000       15.000      0.40000      /
   1032 'GENROU' G     6.0000      0.50000       1.0000      0.50000E-01
          2.4100       0.0000       1.4000       1.3500      0.30000
         0.60000      0.20000      0.10000      0.30000E-01  0.40000      /
   1032 'SEXS'   G    0.10000       10.000       100.00      0.10000
          0.0000       3.0000      /
   1032 'GAST'   G    0.80000E-01  0.30000      0.30000       3.0000
          1.0000       2.0000       1.0000       0.0000       0.0000      /
   1034 'GENROU' C     6.0000      0.50000       1.0000      0.50000E-01
          2.4100       0.0000       1.4000       1.3500      0.30000
         0.60000      0.20000      0.10000      0.30000E-01  0.40000      /
   1034 'SEXS'   C    0.10000       10.000       100.00      0.10000
          0.0000       3.0000      /
   1034 'TGOV1'  C    0.80000E-01   2.0000       1.0000       0.0000
          3.0000       15.000      0.40000      /
   1034 'GENROU' G     6.0000      0.50000       1.0000      0.50000E-01
          2.4100       0.0000       1.4000       1.3500      0.30000
         0.60000      0.20000      0.10000      0.30000E-01  0.40000      /
   1034 'SEXS'   G    0.10000       10.000       100.00      0.10000
          0.0000       3.0000      /
   1034 'GAST'   G    0.80000E-01  0.30000      0.30000       3.0000
          1.0000       2.0000       1.0000       0.0000       0.0000      /
   1131 'GENROU' C     6.0000      0.50000       1.0000      0.50000E-01
          4.2600       0.0000       1.4000       1.3500      0.30000
         0.60000      0.20000      0.10000      0.30000E-01  0.40000      /
   1131 'SEXS'   C    0.10000       10.000       100.00      0.10000
          0.0000       3.0000      /
   1131 'TGOV1'  C    0.80000E-01   2.0000       1.0000       0.0000
          3.0000       15.000      0.40000      /
   1131 'GENROU' G     6.0000      0.50000       1.0000      0.50000E-01
          4.2600       0.0000       1.4000       1.3500      0.30000
         0.60000      0.20000      0.10000      0.30000E-01  0.40000      /
   1131 'SEXS'   G    0.10000       10.000       100.00      0.10000
          0.0000       3.0000      /
   1131 'GAST'   G    0.80000E-01  0.30000      0.30000       3.0000
          1.0000       2.0000       1.0000       0.0000       0.0000      /
   1232 'GENROU' C     6.0000      0.50000       1.0000      0.50000E-01
          4.2600       0.0000       1.4000       1.3500      0.30000
         0.60000      0.20000      0.10000      0.30000E-01  0.40000      /
   1232 'SEXS'   C    0.10000       10.000       100.00      0.10000
          0.0000       3.0000      /
   1232 'TGOV1'  C    0.80000E-01   2.0000       1.0000       0.0000
          3.0000       15.000      0.40000      /
   1232 'GENROU' H     6.0000      0.50000       1.0000      0.50000E-01
          4.2600       0.0000       1.4000       1.3500      0.30000
         0.60000      0.20000      0.10000      0.30000E-01  0.40000      /
   1232 'SEXS'   H    0.10000       10.000       100.00      0.10000
          0.0000       3.0000      /
   1232 'HYGOV'  H    0.50000E-01  0.75000E-01   12.000      0.50000
          20.500      0.10000       1.0000       0.0000       15.000
          1.5000       0.0000      0.80000E-01  /
   1331 'GENROU' G     6.0000      0.50000       1.0000      0.50000E-01
          4.2600       0.0000       1.4000       1.3500      0.30000
         0.60000      0.20000      0.10000      0.30000E-01  0.40000      /
   1331 'SEXS'   G    0.10000       10.000       100.00      0.10000
          0.0000       3.0000      /
   1331 'GAST'   G    0.80000E-01  0.30000      0.30000       3.0000
          1.0000       2.0000       1.0000       0.0000       0.0000      /
   1331 'GENROU' H     6.0000      0.50000       1.0000      0.50000E-01
          4.2600       0.0000       1.4000       1.3500      0.30000
         0.60000      0.20000      0.10000      0.30000E-01  0.40000      /
   1331 'SEXS'   H    0.10000       10.000       100.00      0.10000
          0.0000       3.0000      /
   1331 'HYGOV'  H    0.50000E-01  0.75000E-01   12.000      0.50000
          20.500      0.10000       1.0000       0.0000       15.000
          1.5000       0.0000      0.80000E-01  /
   1333 'GENROU' C     6.0000      0.50000       1.0000      0.50000E-01
          2.7900       0.0000       1.4000       1.3500      0.30000
         0.60000      0.20000      0.10000      0.30000E-01  0.40000      /
   1333 'SEXS'   C    0.10000       10.000       100.00      0.10000
          0.0000       3.0000      /
   1333 'TGOV1'  C    0.80000E-01   2.0000       1.0000       0.0000
          3.0000       15.000      0.40000      /
   1333 'GENROU' G     6.0000      0.50000       1.0000      0.50000E-01
          2.7900       0.0000       1.4000       1.3500      0.30000
         0.60000      0.20000      0.10000      0.30000E-01  0.40000      /
   1333 'SEXS'   G    0.10000       10.000       100.00      0.10000
          0.0000       3.0000      /
   1333 'GAST'   G    0.80000E-01  0.30000      0.30000       3.0000
          1.0000       2.0000       1.0000       0.0000       0.0000      /
   1431 'GENROU' G     6.0000      0.50000       1.0000      0.50000E-01
          4.2600       0.0000       1.4000       1.3500      0.30000
         0.60000      0.20000      0.10000      0.30000E-01  0.40000      /
   1431 'SEXS'   G    0.10000       10.000       100.00      0.10000
          0.0000       3.0000      /
   1431 'GAST'   G    0.80000E-01  0.30000      0.30000       3.0000
          1.0000       2.0000       1.0000       0.0000       0.0000      /
   1431 'GENROU' N     6.0000      0.50000       1.0000      0.50000E-01
          4.2600       0.0000       1.4000       1.3500      0.30000
         0.60000      0.20000      0.10000      0.30000E-01  0.40000      /
   1431 'SEXS'   N    0.10000       10.000       100.00      0.10000
          0.0000       3.0000      /
   1431 'TGOV1'  N    0.80000E-01   2.0000       1.0000       0.0000
          3.0000       15.000      0.40000      /
   2030 'GENROU' E     6.0000      0.50000       1.0000      0.50000E-01
          4.5300       0.0000       1.4000       1.3500      0.30000
         0.60000      0.20000      0.10000      0.30000E-01  0.40000      /
   2030 'SEXS'   E    0.10000       10.000       100.00      0.10000
          0.0000       3.0000      /
   2030 'TGOV1'  E    0.80000E-01   2.0000       1.0000       0.0000
          3.0000       15.000      0.40000      /
   2030 'GENROU' G     6.0000      0.50000       1.0000      0.50000E-01
          4.5300       0.0000       1.4000       1.3500      0.30000
         0.60000      0.20000      0.10000      0.30000E-01  0.40000      /
   2030 'SEXS'   G    0.10000       10.000       100.00      0.10000
          0.0000       3.0000      /
   2030 'GAST'   G    0.80000E-01  0.30000      0.30000       3.0000
          1.0000       2.0000       1.0000       0.0000       0.0000      /
   2130 'GENROU' E     6.0000      0.50000       1.0000      0.50000E-01
          3.7400       0.0000       1.4000       1.3500      0.30000
         0.60000      0.20000      0.10000      0.30000E-01  0.40000      /
   2130 'SEXS'   E    0.10000       10.000       100.00      0.10000
          0.0000       3.0000      /
   2130 'TGOV1'  E    0.80000E-01   2.0000       1.0000       0.0000
          3.0000       15.000      0.40000      /
   2130 'GENROU' G     6.0000      0.50000       1.0000      0.50000E-01
          3.7400       0.0000       1.4000       1.3500      0.30000
         0.60000      0.20000      0.10000      0.30000E-01  0.40000      /
   2130 'SEXS'   G    0.10000       10.000       100.00      0.10000
          0.0000       3.0000      /
   2130 'GAST'   G    0.80000E-01  0.30000      0.30000       3.0000
          1.0000       2.0000       1.0000       0.0000       0.0000      /
   2130 'GENROU' H     6.0000      0.50000       1.0000      0.50000E-01
          3.7400       0.0000       1.4000       1.3500      0.30000
         0.60000      0.20000      0.10000      0.30000E-01  0.40000      /
   2130 'SEXS'   H    0.10000       10.000       100.00      0.10000
          0.0000       3.0000      /
   2130 'HYGOV'  H    0.50000E-01  0.75000E-01   12.000      0.50000
          20.500      0.10000       1.0000       0.0000       15.000
          1.5000       0.0000      0.80000E-01  /
   2233 'GENROU' DG    6.0000      0.50000       1.0000      0.50000E-01
          3.3000       0.0000       1.4000       1.3500      0.30000
         0.60000      0.20000      0.10000      0.30000E-01  0.40000      /
   2233 'SEXS'   DG   0.10000       10.000       100.00      0.10000
          0.0000       3.0000      /
   2233 'GAST'   DG   0.80000E-01  0.30000      0.30000       3.0000
          1.0000       2.0000       1.0000       0.0000       0.0000      /
   2233 'GENROU' EG    6.0000      0.50000       1.0000      0.50000E-01
          3.3000       0.0000       1.4000       1.3500      0.30000
         0.60000      0.20000      0.10000      0.30000E-01  0.40000      /
   2233 'SEXS'   EG   0.10000       10.000       100.00      0.10000
          0.0000       3.0000      /
   2233 'GAST'   EG   0.80000E-01  0.30000      0.30000       3.0000
          1.0000       2.0000       1.0000       0.0000       0.0000      /
   2233 'GENROU' TG    6.0000      0.50000       1.0000      0.50000E-01
          3.3000       0.0000       1.4000       1.3500      0.30000
         0.60000      0.20000      0.10000      0.30000E-01  0.40000      /
   2233 'SEXS'   TG   0.10000       10.000       100.00      0.10000
          0.0000       3.0000      /
   2233 'GAST'   TG   0.80000E-01  0.30000      0.30000       3.0000
          1.0000       2.0000       1.0000       0.0000       0.0000      /
   2438 'GENROU' EG    6.0000      0.50000       1.0000      0.50000E-01
          3.5400       0.0000       1.4000       1.3500      0.30000
         0.60000      0.20000      0.10000      0.30000E-01  0.40000      /
   2438 'SEXS'   EG   0.10000       10.000       100.00      0.10000
          0.0000       3.0000      /
   2438 'GAST'   EG   0.80000E-01  0.30000      0.30000       3.0000
          1.0000       2.0000       1.0000       0.0000       0.0000      /
   2438 'GENROU' ND    6.0000      0.50000       1.0000      0.50000E-01
          3.5400       0.0000       1.4000       1.3500      0.30000
         0.60000      0.20000      0.10000      0.30000E-01  0.40000      /
   2438 'SEXS'   ND   0.10000       10.000       100.00      0.10000
          0.0000       3.0000      /
   2438 'TGOV1'  ND   0.80000E-01   2.0000       1.0000       0.0000
          3.0000       15.000      0.40000      /
   2438 'GENROU' RG    6.0000      0.50000       1.0000      0.50000E-01
          3.5400       0.0000       1.4000       1.3500      0.30000
         0.60000      0.20000      0.10000      0.30000E-01  0.40000      /
   2438 'SEXS'   RG   0.10000       10.000       100.00      0.10000
          0.0000       3.0000      /
   2438 'GAST'   RG   0.80000E-01  0.30000      0.30000       3.0000
          1.0000       2.0000       1.0000       0.0000       0.0000      /
   2438 'GENROU' SG    6.0000      0.50000       1.0000      0.50000E-01
          3.5400       0.0000       1.4000       1.3500      0.30000
         0.60000      0.20000      0.10000      0.30000E-01  0.40000      /
   2438 'SEXS'   SG   0.10000       10.000       100.00      0.10000
          0.0000       3.0000      /
   2438 'GAST'   SG   0.80000E-01  0.30000      0.30000       3.0000
          1.0000       2.0000       1.0000       0.0000       0.0000      /
   2438 'GENROU' SH    6.0000      0.50000       1.0000      0.50000E-01
          3.5400       0.0000       1.4000       1.3500      0.30000
         0.60000      0.20000      0.10000      0.30000E-01  0.40000      /
   2438 'SEXS'   SH   0.10000       10.000       100.00      0.10000
          0.0000       3.0000      /
   2438 'HYGOV'  SH   0.50000E-01  0.75000E-01   12.000      0.50000
          20.500      0.10000       1.0000       0.0000       15.000
          1.5000       0.0000      0.80000E-01  /
   2438 'GENROU' WG    6.0000      0.50000       1.0000      0.50000E-01
          3.5400       0.0000       1.4000       1.3500      0.30000
         0.60000      0.20000      0.10000      0.30000E-01  0.40000      /
   2438 'SEXS'   WG   0.10000       10.000       100.00      0.10000
          0.0000       3.0000      /
   2438 'GAST'   WG   0.80000E-01  0.30000      0.30000       3.0000
          1.0000       2.0000       1.0000       0.0000       0.0000      /
   2630 'GENROU' G     6.0000      0.50000       1.0000      0.50000E-01
          4.7500       0.0000       1.4000       1.3500      0.30000
         0.60000      0.20000      0.10000      0.30000E-01  0.40000      /
   2630 'SEXS'   G    0.10000       10.000       100.00      0.10000
          0.0000       3.0000      /
   2630 'GAST'   G    0.80000E-01  0.30000      0.30000       3.0000
          1.0000       2.0000       1.0000       0.0000       0.0000      /
   2634 'GENROU' C     6.0000      0.50000       1.0000      0.50000E-01
          2.8700       0.0000       1.4000       1.3500      0.30000
         0.60000      0.20000      0.10000      0.30000E-01  0.40000      /
   2634 'SEXS'   C    0.10000       10.000       100.00      0.10000
          0.0000       3.0000      /
   2634 'TGOV1'  C    0.80000E-01   2.0000       1.0000       0.0000
          3.0000       15.000      0.40000      /
   2637 'GENROU' H     6.0000      0.50000       1.0000      0.50000E-01
          4.7500       0.0000       1.4000       1.3500      0.30000
         0.60000      0.20000      0.10000      0.30000E-01  0.40000      /
   2637 'SEXS'   H    0.10000       10.000       100.00      0.10000
          0.0000       3.0000      /
   2637 'HYGOV'  H    0.50000E-01  0.75000E-01   12.000      0.50000
          20.500      0.10000       1.0000       0.0000       15.000
          1.5000       0.0000      0.80000E-01  /
   2638 'GENROU' H     6.0000      0.50000       1.0000      0.50000E-01
          4.7500       0.0000       1.4000       1.3500      0.30000
         0.60000      0.20000      0.10000      0.30000E-01  0.40000      /
   2638 'SEXS'   H    0.10000       10.000       100.00      0.10000
          0.0000       3.0000      /
   2638 'HYGOV'  H    0.50000E-01  0.75000E-01   12.000      0.50000
          20.500      0.10000       1.0000       0.0000       15.000
          1.5000       0.0000      0.80000E-01  /
   3133 'GENROU' NG    6.0000      0.50000       1.0000      0.50000E-01
          3.6600       0.0000       1.4000       1.3500      0.30000
         0.60000      0.20000      0.10000      0.30000E-01  0.40000      /
   3133 'SEXS'   NG   0.10000       10.000       100.00      0.10000
          0.0000       3.0000      /
   3133 'GAST'   NG   0.80000E-01  0.30000      0.30000       3.0000
          1.0000       2.0000       1.0000       0.0000       0.0000      /
   3133 'GENROU' SC    6.0000      0.50000       1.0000      0.50000E-01
          3.6600       0.0000       1.4000       1.3500      0.30000
         0.60000      0.20000      0.10000      0.30000E-01  0.40000      /
   3133 'SEXS'   SC   0.10000       10.000       100.00      0.10000
          0.0000       3.0000      /
   3133 'TGOV1'  SC   0.80000E-01   2.0000       1.0000       0.0000
          3.0000       15.000      0.40000      /
   3135 'GENROU' MG    6.0000      0.50000       1.0000      0.50000E-01
          3.6600       0.0000       1.4000       1.3500      0.30000
         0.60000      0.20000      0.10000      0.30000E-01  0.40000      /
   3135 'SEXS'   MG   0.10000       10.000       100.00      0.10000
          0.0000       3.0000      /
   3135 'GAST'   MG   0.80000E-01  0.30000      0.30000       3.0000
          1.0000       2.0000       1.0000       0.0000       0.0000      /
   3135 'GENROU' NG    6.0000      0.50000       1.0000      0.50000E-01
          3.6600       0.0000       1.4000       1.3500      0.30000
         0.60000      0.20000      0.10000      0.30000E-01  0.40000      /
   3135 'SEXS'   NG   0.10000       10.000       100.00      0.10000
          0.0000       3.0000      /
   3135 'GAST'   NG   0.80000E-01  0.30000      0.30000       3.0000
          1.0000       2.0000       1.0000       0.0000       0.0000      /
   3234 'GENROU' DG    6.0000      0.50000       1.0000      0.50000E-01
          3.6600       0.0000       1.4000       1.3500      0.30000
         0.60000      0.20000      0.10000      0.30000E-01  0.40000      /
   3234 'SEXS'   DG   0.10000       10.000       100.00      0.10000
          0.0000       3.0000      /
   3234 'GAST'   DG   0.80000E-01  0.30000      0.30000       3.0000
          1.0000       2.0000       1.0000       0.0000       0.0000      /
   3234 'GENROU' MG    6.0000      0.50000       1.0000      0.50000E-01
          3.6600       0.0000       1.4000       1.3500      0.30000
         0.60000      0.20000      0.10000      0.30000E-01  0.40000      /
   3234 'SEXS'   MG   0.10000       10.000       100.00      0.10000
          0.0000       3.0000      /
   3234 'GAST'   MG   0.80000E-01  0.30000      0.30000       3.0000
          1.0000       2.0000       1.0000       0.0000       0.0000      /
   3234 'GENROU' NG    6.0000      0.50000       1.0000      0.50000E-01
          3.6600       0.0000       1.4000       1.3500      0.30000
         0.60000      0.20000      0.10000      0.30000E-01  0.40000      /
   3234 'SEXS'   NG   0.10000       10.000       100.00      0.10000
          0.0000       3.0000      /
   3234 'GAST'   NG   0.80000E-01  0.30000      0.30000       3.0000
          1.0000       2.0000       1.0000       0.0000       0.0000      /
   3333 'GENROU' CG    6.0000      0.50000       1.0000      0.50000E-01
          3.6600       0.0000       1.4000       1.3500      0.30000
         0.60000      0.20000      0.10000      0.30000E-01  0.40000      /
   3333 'SEXS'   CG   0.10000       10.000       100.00      0.10000
          0.0000       3.0000      /
   3333 'GAST'   CG   0.80000E-01  0.30000      0.30000       3.0000
          1.0000       2.0000       1.0000       0.0000       0.0000      /
   3333 'GENROU' NG    6.0000      0.50000       1.0000      0.50000E-01
          3.6600       0.0000       1.4000       1.3500      0.30000
         0.60000      0.20000      0.10000      0.30000E-01  0.40000      /
   3333 'SEXS'   NG   0.10000       10.000       100.00      0.10000
          0.0000       3.0000      /
   3333 'GAST'   NG   0.80000E-01  0.30000      0.30000       3.0000
          1.0000       2.0000       1.0000       0.0000       0.0000      /
   3432 'GENROU' NP    6.0000      0.50000       1.0000      0.50000E-01
          3.6600       0.0000       1.4000       1.3500      0.30000
         0.60000      0.20000      0.10000      0.30000E-01  0.40000      /
   3432 'SEXS'   NP   0.10000       10.000       100.00      0.10000
          0.0000       3.0000      /
   3432 'TGOV1'  NP   0.80000E-01   2.0000       1.0000       0.0000
          3.0000       15.000      0.40000      /
   3433 'GENROU' NG    6.0000      0.50000       1.0000      0.50000E-01
          3.6600       0.0000       1.4000       1.3500      0.30000
         0.60000      0.20000      0.10000      0.30000E-01  0.40000      /
   3433 'SEXS'   NG   0.10000       10.000       100.00      0.10000
          0.0000       3.0000      /
   3433 'GAST'   NG   0.80000E-01  0.30000      0.30000       3.0000
          1.0000       2.0000       1.0000       0.0000       0.0000      /
   3531 'GENROU' CE    6.0000      0.50000       1.0000      0.50000E-01
          3.6600       0.0000       1.4000       1.3500      0.30000
         0.60000      0.20000      0.10000      0.30000E-01  0.40000      /
   3531 'SEXS'   CE   0.10000       10.000       100.00      0.10000
          0.0000       3.0000      /
   3531 'TGOV1'  CE   0.80000E-01   2.0000       1.0000       0.0000
          3.0000       15.000      0.40000      /
   3531 'GENROU' NE    6.0000      0.50000       1.0000      0.50000E-01
          3.6600       0.0000       1.4000       1.3500      0.30000
         0.60000      0.20000      0.10000      0.30000E-01  0.40000      /
   3531 'SEXS'   NE   0.10000       10.000       100.00      0.10000
          0.0000       3.0000      /
   3531 'TGOV1'  NE   0.80000E-01   2.0000       1.0000       0.0000
          3.0000       15.000      0.40000      /
   3531 'GENROU' NH    6.0000      0.50000       1.0000      0.50000E-01
          3.6600       0.0000       1.4000       1.3500      0.30000
         0.60000      0.20000      0.10000      0.30000E-01  0.40000      /
   3531 'SEXS'   NH   0.10000       10.000       100.00      0.10000
          0.0000       3.0000      /
   3531 'HYGOV'  NH   0.50000E-01  0.75000E-01   12.000      0.50000
          20.500      0.10000       1.0000       0.0000       15.000
          1.5000       0.0000      0.80000E-01  /
   3631 'GENROU' NB    6.0000      0.50000       1.0000      0.50000E-01
          3.6600       0.0000       1.4000       1.3500      0.30000
         0.60000      0.20000      0.10000      0.30000E-01  0.40000      /
   3631 'SEXS'   NB   0.10000       10.000       100.00      0.10000
          0.0000       3.0000      /
   3631 'TGOV1'  NB   0.80000E-01   2.0000       1.0000       0.0000
          3.0000       15.000      0.40000      /
   3631 'GENROU' NG    6.0000      0.50000       1.0000      0.50000E-01
          3.6600       0.0000       1.4000       1.3500      0.30000
         0.60000      0.20000      0.10000      0.30000E-01  0.40000      /
   3631 'SEXS'   NG   0.10000       10.000       100.00      0.10000
          0.0000       3.0000      /
   3631 'GAST'   NG   0.80000E-01  0.30000      0.30000       3.0000
          1.0000       2.0000       1.0000       0.0000       0.0000      /
   3731 'GENROU' NH    6.0000      0.50000       1.0000      0.50000E-01
          2.7900       0.0000       1.4000       1.3500      0.30000
         0.60000      0.20000      0.10000      0.30000E-01  0.40000      /
   3731 'SEXS'   NH   0.10000       10.000       100.00      0.10000
          0.0000       3.0000      /
   3731 'HYGOV'  NH   0.50000E-01  0.75000E-01   12.000      0.50000
          20.500      0.10000       1.0000       0.0000       15.000
          1.5000       0.0000      0.80000E-01  /
   3831 'GENROU' NN    6.0000      0.50000       1.0000      0.50000E-01
          3.6600       0.0000       1.4000       1.3500      0.30000
         0.60000      0.20000      0.10000      0.30000E-01  0.40000      /
   3831 'SEXS'   NN   0.10000       10.000       100.00      0.10000
          0.0000       3.0000      /
   3831 'TGOV1'  NN   0.80000E-01   2.0000       1.0000       0.0000
          3.0000       15.000      0.40000      /
   3835 'GENROU' ND    6.0000      0.50000       1.0000      0.50000E-01
          3.6600       0.0000       1.4000       1.3500      0.30000
         0.60000      0.20000      0.10000      0.30000E-01  0.40000      /
   3835 'SEXS'   ND   0.10000       10.000       100.00      0.10000
          0.0000       3.0000      /
   3835 'TGOV1'  ND   0.80000E-01   2.0000       1.0000       0.0000
          3.0000       15.000      0.40000      /
   3835 'GENROU' NG    6.0000      0.50000       1.0000      0.50000E-01
          3.6600       0.0000       1.4000       1.3500      0.30000
         0.60000      0.20000      0.10000      0.30000E-01  0.40000      /
   3835 'SEXS'   NG   0.10000       10.000       100.00      0.10000
          0.0000       3.0000      /
   3835 'GAST'   NG   0.80000E-01  0.30000      0.30000       3.0000
          1.0000       2.0000       1.0000       0.0000       0.0000      /
   3836 'GENROU' DG    6.0000      0.50000       1.0000      0.50000E-01
          3.6600       0.0000       1.4000       1.3500      0.30000
         0.60000      0.20000      0.10000      0.30000E-01  0.40000      /
   3836 'SEXS'   DG   0.10000       10.000       100.00      0.10000
          0.0000       3.0000      /
   3836 'GAST'   DG   0.80000E-01  0.30000      0.30000       3.0000
          1.0000       2.0000       1.0000       0.0000       0.0000      /
   3931 'GENROU' NB    6.0000      0.50000       1.0000      0.50000E-01
          3.6600       0.0000       1.4000       1.3500      0.30000
         0.60000      0.20000      0.10000      0.30000E-01  0.40000      /
   3931 'SEXS'   NB   0.10000       10.000       100.00      0.10000
          0.0000       3.0000      /
   3931 'TGOV1'  NB   0.80000E-01   2.0000       1.0000       0.0000
          3.0000       15.000      0.40000      /
   3931 'GENROU' NH    6.0000      0.50000       1.0000      0.50000E-01
          3.6600       0.0000       1.4000       1.3500      0.30000
         0.60000      0.20000      0.10000      0.30000E-01  0.40000      /
   3931 'SEXS'   NH   0.10000       10.000       100.00      0.10000
          0.0000       3.0000      /
   3931 'HYGOV'  NH   0.50000E-01  0.75000E-01   12.000      0.50000
          20.500      0.10000       1.0000       0.0000       15.000
          1.5000       0.0000      0.80000E-01  /
   3933 'GENROU' CG    6.0000      0.50000       1.0000      0.50000E-01
          3.6600       0.0000       1.4000       1.3500      0.30000
         0.60000      0.20000      0.10000      0.30000E-01  0.40000      /
   3933 'SEXS'   CG   0.10000       10.000       100.00      0.10000
          0.0000       3.0000      /
   3933 'GAST'   CG   0.80000E-01  0.30000      0.30000       3.0000
          1.0000       2.0000       1.0000       0.0000       0.0000      /
   3933 'GENROU' NB    6.0000      0.50000       1.0000      0.50000E-01
          3.6600       0.0000       1.4000       1.3500      0.30000
         0.60000      0.20000      0.10000      0.30000E-01  0.40000      /
   3933 'SEXS'   NB   0.10000       10.000       100.00      0.10000
          0.0000       3.0000      /
   3933 'TGOV1'  NB   0.80000E-01   2.0000       1.0000       0.0000
          3.0000       15.000      0.40000      /
   3933 'GENROU' ND    6.0000      0.50000       1.0000      0.50000E-01
          3.6600       0.0000       1.4000       1.3500      0.30000
         0.60000      0.20000      0.10000      0.30000E-01  0.40000      /
   3933 'SEXS'   ND   0.10000       10.000       100.00      0.10000
          0.0000       3.0000      /
   3933 'TGOV1'  ND   0.80000E-01   2.0000       1.0000       0.0000
          3.0000       15.000      0.40000      /
   3933 'GENROU' NG    6.0000      0.50000       1.0000      0.50000E-01
          3.6600       0.0000       1.4000       1.3500      0.30000
         0.60000      0.20000      0.10000      0.30000E-01  0.40000      /
   3933 'SEXS'   NG   0.10000       10.000       100.00      0.10000
          0.0000       3.0000      /
   3933 'GAST'   NG   0.80000E-01  0.30000      0.30000       3.0000
          1.0000       2.0000       1.0000       0.0000       0.0000      /
   3933 'GENROU' NH    6.0000      0.50000       1.0000      0.50000E-01
          3.6600       0.0000       1.4000       1.3500      0.30000
         0.60000      0.20000      0.10000      0.30000E-01  0.40000      /
   3933 'SEXS'   NH   0.10000       10.000       100.00      0.10000
          0.0000       3.0000      /
   3933 'HYGOV'  NH   0.50000E-01  0.75000E-01   12.000      0.50000
          20.500      0.10000       1.0000       0.0000       15.000
          1.5000       0.0000      0.80000E-01  /
   4031 'GENROU' G     6.0000      0.50000       1.0000      0.50000E-01
          3.8400       0.0000       1.4000       1.3500      0.30000
         0.60000      0.20000      0.10000      0.30000E-01  0.40000      /
   4031 'SEXS'   G    0.10000       10.000       100.00      0.10000
          0.0000       3.0000      /
   4031 'GAST'   G    0.80000E-01  0.30000      0.30000       3.0000
          1.0000       2.0000       1.0000       0.0000       0.0000      /
   4031 'GENROU' H     6.0000      0.50000       1.0000      0.50000E-01
          3.8400       0.0000       1.4000       1.3500      0.30000
         0.60000      0.20000      0.10000      0.30000E-01  0.40000      /
   4031 'SEXS'   H    0.10000       10.000       100.00      0.10000
          0.0000       3.0000      /
   4031 'HYGOV'  H    0.50000E-01  0.75000E-01   12.000      0.50000
          20.500      0.10000       1.0000       0.0000       15.000
          1.5000       0.0000      0.80000E-01  /
   4035 'GENROU' C     6.0000      0.50000       1.0000      0.50000E-01
          3.8400       0.0000       1.4000       1.3500      0.30000
         0.60000      0.20000      0.10000      0.30000E-01  0.40000      /
   4035 'SEXS'   C    0.10000       10.000       100.00      0.10000
          0.0000       3.0000      /
   4035 'TGOV1'  C    0.80000E-01   2.0000       1.0000       0.0000
          3.0000       15.000      0.40000      /
   4035 'GENROU' G     6.0000      0.50000       1.0000      0.50000E-01