      1 'GENROU' 1     7.4000      0.50000E-01  0.85000      0.50000E-01
          5.1480      0.80000E-01  0.89790      0.64600      0.30000
         0.64600      0.23000      0.22000      0.10000E-01   1.0000      /
      1 'SEXS'   1    0.10000       10.000       350.00      0.50000E-01
          0.0000       2.0000      /
      1 'GAST'   1    0.50000E-01  0.20000      0.20000       2.0000
          1.0000       2.5000       1.1000      0.10000E-01   0.0000      /
      2 'GENROU' 1     6.1000      0.40000E-01  0.30000      0.99000E-01
          4.5400      0.78000E-01   1.0500      0.98000      0.18500
         0.36000      0.13000       0.0000      0.10000E-01   1.0000      /
      2 'SEXS'   1    0.10000       10.000       350.00      0.50000E-01
          0.0000       2.0000      /
      2 'GAST'   1    0.50000E-01  0.20000      0.20000       2.0000
          1.0000       2.5000       1.1000      0.10000E-01   0.0000      /
      4 'GENROU' 1     6.1000      0.40000E-01  0.30000      0.99000E-01
          2.0000      0.50000       1.0500      0.98000      0.18500
         0.36000      0.13000       0.0000      0.10000E-01   1.0300      /
      4 'SEXS'   1    0.10000       10.000       350.00      0.10000
          0.0000       2.5000      /
      4 'GAST'   1    0.50000E-01  0.20000      0.20000       2.0000
          1.0000       2.5000       1.1000      0.10000E-01   0.0000      /
      8 'GENROU' 1     3.7500      0.47800E-01   1.5000      0.47800E-01
          2.5000      0.20000E-01   1.2500       1.2200      0.23200
         0.71500      0.12000      0.11000      0.10000      0.40000      /
      8 'ESAC1A' 1     0.0000       0.0000       0.0000       400.00
         0.20000E-01   10.000      -10.000      0.80000      0.30000E-01
          1.0000      0.20000      0.38000       1.0000       3.1400
         0.30000E-01   4.1800      0.10000       7.3200      -7.3200    /
      8 'GAST'   1    0.20000E-01  0.20000      0.20000       2.0000
          1.0000       2.5000       1.1000      0.10000E-01   0.0000      /
     10 'GENROU' 1     3.7500      0.60000E-01   1.5000      0.19000
          2.5000      0.10000E-01   1.2500       1.2200      0.23200
         0.71500      0.12000      0.11000      0.12000      0.60000      /
     10 'ESAC1A' 1     0.0000       0.0000       0.0000       400.00
         0.20000E-01   10.000      -10.000      0.80000      0.30000E-01
          1.0000      0.20000      0.38000       1.0000       3.1400
         0.30000E-01   4.1800      0.10000       7.3200      -7.3200    /
     10 'GAST'   1    0.20000E-01  0.20000      0.20000       2.0000
          1.0000       2.5000       1.1000      0.10000E-01   0.0000      /
      3 'REGCA1' 1       0
         0.20000E-01   10.000      0.90000      0.40000       1.2200
          1.2000      0.90000      0.50000      -1.3000      0.20000
          0.0000       100.00      -100.00       0.0000      /
      3 'REECB1' 1
          0          0       0       0       0
         -99.000          99.000         0.20000E-01    -0.10000E-01     0.10000E-01
          1.0000          1.1000         -1.1000          0.0000          0.0000
         0.44000        -0.44000          1.0500         0.90000          0.0000
         0.10000E-01      10.000          60.000         0.20000E-01      99.000
         -99.000          1.2000          0.0000          1.1100         0.20000E-01   /
      3 'REPCA1' 1
             0           0           0    '0 '        0       0       1
         0.20000E-01      18.000          5.0000          0.0000         0.50000E-01
          0.0000          0.0000          0.0000          0.0000         0.10000
        -0.10000        -0.10000E-01     0.10000E-01     0.43000        -0.43000
          1.0000         0.50000E-01     0.25000        -0.10000E-01     0.10000E-01
          99.000         -99.000          1.2000          0.0000         0.10000
         0.50000E-01     0.50000E-01  /
      5 'REGCA1' 1       0
         0.20000E-01   10.000      0.90000      0.40000       1.2200
          1.2000      0.90000      0.50000      -1.3000      0.20000
          0.0000       100.00      -100.00       0.0000      /
      5 'REECB1' 1
          0          0       0       0       0
         -99.000          99.000         0.20000E-01    -0.10000E-01     0.10000E-01
          1.0000          1.1000         -1.1000          0.0000          0.0000
         0.44000        -0.44000          1.0500         0.90000          0.0000
         0.10000E-01      10.000          60.000         0.20000E-01      99.000
         -99.000          1.2000          0.0000          1.1100         0.20000E-01   /
      5 'REPCA1' 1
             0           0           0    '0 '        0       0       1
         0.20000E-01      18.000          5.0000          0.0000         0.50000E-01
          0.0000          0.0000          0.0000          0.0000         0.10000
        -0.10000        -0.10000E-01     0.10000E-01     0.43000        -0.43000
          1.0000         0.50000E-01     0.25000        -0.10000E-01     0.10000E-01
          99.000         -99.000          1.2000          0.0000         0.10000
          0.0000          0.0000      /
      8 'REGCA1' 2       0
         0.20000E-01   10.000      0.90000      0.40000       1.2200
          1.2000      0.90000      0.50000      -1.3000      0.20000
          0.0000       100.00      -100.00       0.0000      /
      8 'REECB1' 2
          0          0       0       0       0
         -99.000          99.000         0.20000E-01    -0.10000E-01     0.10000E-01
          1.0000          1.1000         -1.1000          0.0000          0.0000
         0.44000        -0.44000          1.0500         0.90000          0.0000
         0.10000E-01      10.000          60.000         0.20000E-01      99.000
         -99.000          1.2000          0.0000          1.1100         0.20000E-01   /
      8 'REPCA1' 2
             0           0           0    '0 '        0       0       1
         0.20000E-01      18.000          5.0000          0.0000         0.50000E-01
          0.0000          0.0000          0.0000          0.0000         0.10000
        -0.10000        -0.10000E-01     0.10000E-01     0.43000        -0.43000
          1.0000         0.50000E-01     0.25000        -0.10000E-01     0.10000E-01
          99.000         -99.000          1.2000          0.0000         0.10000
          0.0000          0.0000      /
     10 'REGCA1' 2       0
         0.20000E-01   10.000      0.90000      0.40000       1.2200
          1.2000      0.90000      0.50000      -1.3000      0.20000
          0.0000       100.00      -100.00       0.0000      /
     10 'REECB1' 2
          0          0       0       0       0
         -99.000          99.000         0.20000E-01    -0.10000E-01     0.10000E-01
          1.0000          1.1000         -1.1000          0.0000          0.0000
         0.44000        -0.44000          1.0500         0.90000          0.0000
         0.10000E-01      10.000          60.000         0.20000E-01      99.000
         -99.000          1.2000          0.0000          1.1100         0.20000E-01   /
     10 'REPCA1' 2
             0           0           0    '0 '        0       0       1
         0.20000E-01      18.000          5.0000          0.0000         0.50000E-01
          0.0000          0.0000          0.0000          0.0000         0.10000
        -0.10000        -0.10000E-01     0.10000E-01     0.43000        -0.43000
          1.0000         0.50000E-01     0.25000        -0.10000E-01     0.10000E-01
          99.000         -99.000          1.2000          0.0000         0.10000
          0.0000          0.0000      /
     15 'REGCA1' 1       0
         0.20000E-01   10.000      0.90000      0.40000       1.2200
          1.2000      0.90000      0.50000      -1.3000      0.20000
          0.0000       100.00      -100.00       0.0000      /
     15 'REECB1' 1
          0          0       0       0       0
         -99.000          99.000         0.20000E-01    -0.10000E-01     0.10000E-01
          1.0000          1.1000         -1.1000          0.0000          0.0000
         0.44000        -0.44000          1.0500         0.90000          0.0000
         0.10000E-01      10.000          60.000         0.20000E-01      99.000
         -99.000          1.2000          0.0000          1.1100         0.20000E-01   /
     15 'REPCA1' 1
             0           0           0    '0 '        0       0       1
         0.20000E-01      18.000          5.0000          0.0000         0.50000E-01
          0.0000          0.0000          0.0000          0.0000         0.10000
        -0.10000        -0.10000E-01     0.10000E-01     0.43000        -0.43000
          1.0000         0.50000E-01     0.25000        -0.10000E-01     0.10000E-01
          99.000         -99.000          1.2000          0.0000         0.10000
          0.0000          0.0000      /
