1 'GENCLS'  1 0 0 /
2 'GENSAL'  1  8.0  999    999    3.5  4.0  2.1  2.1  0.4    0.4     0.10   0.0    0.0  /
2  'SEXS'   1   1    1  50   0.1    0   5   /
2  'HYGOV'  1    0.04  0.5       1.0      0.05   0.20   0.10  1.0   0.00   1  1.0  0.0   0.0 / 




