  101 'GENCLS' 1  0 0 /
  102 'GENROU' 1     8.0000      0.30000E-01  0.40000      0.50000E-01
          6.1750      0.50000E-01   1.8000       1.7000      0.30000
         0.55000      0.25000      0.20000      0.10000      0.80000      /
  102 'DEGOV1' 1          0      0.19050      0.47600E-01  0.18000E-01
          1.0000       5.1000      0.32200       0.0000      0.0000
          99.99      -99.99      0.70000E-01  0.50000E-01  /
