  1     'GENROU' 1    8    0.03   0.4  0.05  6.5  0  1.8  1.7   0.30  0.55  0.25    0.2  0.0      0.0 /   
  2     'GENROU' 1    8    0.03   0.4  0.05  6.5  0  1.8  1.7   0.30  0.55  0.25    0.2  0.0      0.0 /  
  3     'GENROU' 1    8    0.03   0.4  0.05  6.175  0  1.8  1.7   0.30  0.55  0.25    0.2  0.0      0.0 /   
  4     'GENROU' 1    8    0.03   0.4  0.05  6.175  0  1.8  1.7   0.30  0.55  0.25    0.2  0.0      0.0 /  
  1     'SEXS'  1    0.10000     10.000       100.00      0.10000   0.0000  5.0000  /
  2     'SEXS'  1    0.10000     10.000       100.00      0.10000   0.0000  5.0000  /
  3     'SEXS'  1    0.10000     10.000       100.00      0.10000   0.0000  5.0000  /
  4     'SEXS'  1    0.10000     10.000       100.00      0.10000   0.0000  5.0000  /
  1     'TGOV1' 1    0.50000E-01  0.49000       33.000      0.40000 2.1000       7.0000       0.0000    /
  2     'TGOV1' 1    0.50000E-01  0.49000       33.000      0.40000 2.1000       7.0000       0.0000    /
  3     'TGOV1' 1    0.50000E-01  0.49000       33.000      0.40000 2.1000       7.0000       0.0000    /
  4     'TGOV1' 1    0.50000E-01  0.49000       33.000      0.40000 2.1000       7.0000       0.0000    /