    101 'GENCLS' 1     0.0000       0.0000      /
    102 'GENCLS' 1     8.0000      0.30000E-01  /
    102 'GAST'   1    0.50000E-01  0.20000      0.20000       2.0000
          2.0000       2.5000       1.1000      0.10000E-01   0.0000      /
