  101 'GENCLS' 1  0 0 /
  102 'GENCLS' 1  8 0.03 /
  102 'DEGOV' 1  0 0 0 18 12 5 0.2 1 2 -0.1 /
