@!IC,SBASE,REV,XFRRAT,NXFRAT,BASFRQ
0,  100.00, 35,     0,     1, 60.00     / PSS(R)E-35.3    TUE, APR 30 2024  15:02


GENERAL, THRSHZ=0.0001, PQBRAK=0.7, BLOWUP=5.0, MaxIsolLvls=4, CAMaxReptSln=20, ChkDupCntLbl=0
GAUSS, ITMX=100, ACCP=1.6, ACCQ=1.6, ACCM=1.0, TOL=0.0001
NEWTON, ITMXN=20, ACCN=1.0, TOLN=0.1, VCTOLQ=0.1, VCTOLV=0.00001, DVLIM=0.99, NDVFCT=0.99
ADJUST, ADJTHR=0.005, ACCTAP=1.0, TAPLIM=0.05, SWVBND=100.0, MXTPSS=99, MXSWIM=10
TYSL, ITMXTY=20, ACCTY=1.0, TOLTY=0.00001
SOLVER, FNSL, ACTAPS=0, AREAIN=0, PHSHFT=0, DCTAPS=1, SWSHNT=1, FLATST=0, VARLIM=99, NONDIV=0
RATING, 1, "RATE1 ", "RATING SET 1                    "
RATING, 2, "RATE2 ", "RATING SET 2                    "
RATING, 3, "RATE3 ", "RATING SET 3                    "
RATING, 4, "RATE4 ", "RATING SET 4                    "
RATING, 5, "RATE5 ", "RATING SET 5                    "
RATING, 6, "RATE6 ", "RATING SET 6                    "
RATING, 7, "RATE7 ", "RATING SET 7                    "
RATING, 8, "RATE8 ", "RATING SET 8                    "
RATING, 9, "RATE9 ", "RATING SET 9                    "
RATING,10, "RATE10", "RATING SET 10                   "
RATING,11, "RATE11", "RATING SET 11                   "
RATING,12, "RATE12", "RATING SET 12                   "
0 / END OF SYSTEM-WIDE DATA, BEGIN BUS DATA
@!   I,'NAME        ', BASKV, IDE,AREA,ZONE,OWNER, VM,        VA,    NVHI,   NVLO,   EVHI,   EVLO
  3001,'CJN U01     ',  13.8000,3,   3,   3,   1,1.03000,   0.0000,1.10000,0.90000,1.10000,0.90000
  3002,'CJN U02     ',  13.8000,2,   3,   3,   1,1.03000,   0.0715,1.10000,0.90000,1.10000,0.90000
  3003,'CJN U03     ',  13.8000,2,   3,   3,   1,1.03000,   0.0715,1.10000,0.90000,1.10000,0.90000
  3004,'CJN U04     ',  13.8000,2,   3,   3,   1,1.02000,   0.1078,1.10000,0.90000,1.10000,0.90000
  3005,'CRL U01     ',  13.8000,2,   3,   3,   1,1.00000,  -5.1957,1.10000,0.90000,1.10000,0.90000
  3006,'CRL U02     ',  13.8000,2,   3,   3,   1,1.00000,  -5.1929,1.10000,0.90000,1.10000,0.90000
  3007,'RLN U01     ',  13.8000,2,   3,   3,   1,1.01598,  -4.5480,1.10000,0.90000,1.10000,0.90000
  3008,'RLN U02     ',  13.8000,2,   3,   3,   1,1.01598,  -4.5480,1.10000,0.90000,1.10000,0.90000
  3009,'RLN U03     ',  13.8000,2,   3,   3,   1,1.01287,  -4.9168,1.10000,0.90000,1.10000,0.90000
  3010,'RLN U04     ',  13.8000,2,   3,   3,   1,1.01344,  -5.3545,1.10000,0.90000,1.10000,0.90000
  3011,'NIS U01     ',  13.8000,2,   3,   3,   1,1.02000,   4.4854,1.10000,0.90000,1.10000,0.90000
  3012,'LUV B241    ',  13.8000,2,   3,   5,   2,0.98797,  -1.6703,1.10000,0.90000,1.10000,0.90000
  3013,'LUV B242    ',  13.8000,2,   3,   5,   2,0.98797,  -1.6703,1.10000,0.90000,1.10000,0.90000
  3014,'LUV B243    ',  13.8000,2,   3,   5,   2,0.98797,  -1.6703,1.10000,0.90000,1.10000,0.90000
  3015,'LSL U01     ',  13.8000,2,   3,   5,   2,1.01267,  -1.6703,1.10000,0.90000,1.10000,0.90000
  3016,'MFL B212    ',  13.8000,1,   3,   4,   1,1.00127, -19.1508,1.10000,0.90000,1.10000,0.90000
  3017,'LPT B202    ',  13.8000,2,   3,   1,   1,1.00219, -12.2763,1.10000,0.90000,1.10000,0.90000
  3018,'LPT B201    ',  13.8000,2,   3,   1,   1,1.00225,  49.5546,1.10000,0.90000,1.10000,0.90000
  3019,'ECH B274    ',  13.8000,2,   3,   1,   2,1.02050, -10.5561,1.10000,0.90000,1.10000,0.90000
  3020,'TAL B217    ',  13.8000,2,   3,   1,   1,1.01000,  -0.9663,1.10000,0.90000,1.10000,0.90000
  3021,'TSZ B257    ',  13.8000,2,   3,   1,   1,0.99921,  -4.6666,1.10000,0.90000,1.10000,0.90000
  3022,'LVI B238    ',  13.8000,1,   3,   1,   1,0.99762, -11.5037,1.10000,0.90000,1.10000,0.90000
  3023,'CTE B209    ',  13.8000,2,   3,   2,   1,0.96956,  -9.4947,1.10000,0.90000,1.10000,0.90000
  3024,'PGR B318    ',  34.5000,1,   3,   1,   1,1.00034, -12.6349,1.10000,0.90000,1.10000,0.90000
  3025,'CJL 4.16KV  ',   4.1600,1,   3,   3,   2,1.00447,  64.2108,1.10000,0.90000,1.10000,0.90000
  3026,'SFE B215    ',  13.8000,1,   3,   4,   1,0.99278, -18.1969,1.10000,0.90000,1.10000,0.90000
  3027,'CTE B307    ',  34.5000,1,   3,   2,   1,0.99304,  21.3393,1.10000,0.90000,1.10000,0.90000
  3028,'SMT B234    ',  13.8000,1,   3,   1,   1,0.98786, -15.2913,1.10000,0.90000,1.10000,0.90000
  3029,'CRL B501    ', 138.0000,1,   3,   3,   1,0.99792,  23.7860,1.10000,0.90000,1.10000,0.90000
  3030,'SUY B515    ', 138.0000,1,   3,   4,   1,0.99010,  18.2473,1.10000,0.90000,1.10000,0.90000
  3031,'CDA B530    ', 138.0000,1,   3,   4,   1,0.98570,  18.1995,1.10000,0.90000,1.10000,0.90000
  3032,'CJN B601    ', 230.0000,1,   3,   3,   1,0.99593,  26.3826,1.10000,0.90000,1.10000,0.90000
  3033,'SUY B612    ', 230.0000,1,   3,   4,   1,0.96412,  23.1023,1.10000,0.90000,1.10000,0.90000
  3034,'PAV B620    ', 230.0000,1,   3,   5,   1,1.01267,  28.3297,1.10000,0.90000,1.10000,0.90000
  3035,'BER B205    ',  13.8000,1,   3,   1,   1,0.99982, -14.0544,1.10000,0.90000,1.10000,0.90000
  3036,'BER B410    ',  69.0000,1,   3,   1,   1,1.00846,  25.0474,1.10000,0.90000,1.10000,0.90000
  3037,'BER B507    ', 138.0000,1,   3,   1,   1,0.97632,  22.7004,1.10000,0.90000,1.10000,0.90000
  3038,'PGR B509    ', 138.0000,1,   3,   1,   1,1.01234,  23.4032,1.10000,0.90000,1.10000,0.90000
  3039,'BIJ 4.16KV  ',   4.1600,1,   3,   1,   2,0.99476,  -9.2376,1.10000,0.90000,1.10000,0.90000
  3040,'BIJ B562    ', 138.0000,1,   3,   1,   1,0.99225,  24.8631,1.10000,0.90000,1.10000,0.90000
  3042,'BOR B332    ',  34.5000,2,   3,   2,   1,1.00767,  15.7203,1.10000,0.90000,1.10000,0.90000
  3043,'BOR B571    ', 138.0000,1,   3,   2,   1,0.97756,  23.5093,1.10000,0.90000,1.10000,0.90000
  3044,'BVI B218    ',  13.8000,1,   3,   1,   1,1.00664, -13.1893,1.10000,0.90000,1.10000,0.90000
  3045,'BVI B528    ', 138.0000,1,   3,   1,   1,0.97376,  22.4429,1.10000,0.90000,1.10000,0.90000
  3046,'CCE B330    ',  34.5000,1,   3,   2,   1,1.00311,  -8.6594,1.10000,0.90000,1.10000,0.90000
  3047,'CCE B565    ', 138.0000,1,   3,   2,   1,0.98961,  25.9898,1.10000,0.90000,1.10000,0.90000
  3048,'CHM B239    ',  13.8000,1,   3,   1,   1,1.02050, -10.5561,1.10000,0.90000,1.10000,0.90000
  3049,'CHM B539    ', 138.0000,1,   3,   1,   1,0.99077,  24.3491,1.10000,0.90000,1.10000,0.90000
  3050,'BVI B219    ',  13.8000,1,   3,   1,   1,0.99996, -14.8991,1.10000,0.90000,1.10000,0.90000
  3051,'CIR B221    ',  13.8000,1,   3,   1,   1,0.99629, -14.4457,1.10000,0.90000,1.10000,0.90000
  3052,'CIR B537    ', 138.0000,1,   3,   1,   1,0.97579,  22.4774,1.10000,0.90000,1.10000,0.90000
  3053,'CRL B301    ',  34.5000,1,   3,   3,   1,1.02077,  18.1998,1.10000,0.90000,1.10000,0.90000
  3054,'CRL 69KV    ',  69.0000,1,   3,   3,   1,1.01326,  26.3092,1.10000,0.90000,1.10000,0.90000
  3055,'CTE B513    ', 138.0000,1,   3,   2,   1,0.97102,  23.5129,1.10000,0.90000,1.10000,0.90000
  3056,'CYG B316    ',  34.5000,1,   3,   4,   1,0.98774, -15.5545,1.10000,0.90000,1.10000,0.90000
  3057,'DAN B334    ',  34.5000,1,   3,   4,   1,0.99613,   0.0818,1.10000,0.90000,1.10000,0.90000
  3058,'DAN B432    ',  69.0000,1,   3,   4,   1,0.94131,   3.2177,1.10000,0.90000,1.10000,0.90000
  3059,'ELC B560    ', 138.0000,1,   3,   1,   1,0.99934,  25.3425,1.10000,0.90000,1.10000,0.90000
  3060,'CYG B536    ', 138.0000,1,   3,   4,   1,0.96841,  18.3447,1.10000,0.90000,1.10000,0.90000
  3061,'GMC B347    ',  34.5000,1,   3,   4,   1,0.99832,  -2.7767,1.10000,0.90000,1.10000,0.90000
  3062,'GMC B437    ',  69.0000,1,   3,   4,   1,1.00141,   2.3939,1.10000,0.90000,1.10000,0.90000
  3063,'GUA B337    ',  34.5000,1,   3,   2,   1,0.98846,  18.6700,1.10000,0.90000,1.10000,0.90000
  3064,'GUA B537    ', 138.0000,1,   3,   2,   1,1.00034,  22.6381,1.10000,0.90000,1.10000,0.90000
  3065,'HYO U01     ',   0.4800,4,   3,   1,   2,1.00000,   0.0000,1.10000,0.90000,1.10000,0.90000
  3066,'ISL B334    ',  34.5000,1,   3,   2,   1,0.99136, -11.3253,1.10000,0.90000,1.10000,0.90000
  3067,'ISL B520    ', 138.0000,1,   3,   2,   1,0.97315,  23.7908,1.10000,0.90000,1.10000,0.90000
  3068,'JUT B337    ',  34.5000,2,   3,   4,   1,1.02000,  -7.1864,1.10000,0.90000,1.10000,0.90000
  3069,'JUT B438    ',  69.0000,1,   3,   4,   1,1.00728,   0.2643,1.10000,0.90000,1.10000,0.90000
  3070,'LFL B301    ',  34.5000,1,   3,   3,   1,1.02155,  31.6113,1.10000,0.90000,1.10000,0.90000
  3071,'LFL B434    ',  69.0000,1,   3,   3,   1,1.02515,  35.0490,1.10000,0.90000,1.10000,0.90000
  3073,'LIM 69KV    ',  69.0000,1,   3,   1,   1,0.98942,  19.3994,1.10000,0.90000,1.10000,0.90000
  3074,'LLN B213    ',  13.8000,1,   3,   4,   1,0.99828, -23.0709,1.10000,0.90000,1.10000,0.90000
  3075,'LLN B419    ',  69.0000,1,   3,   4,   1,1.02432,  12.3243,1.10000,0.90000,1.10000,0.90000
  3076,'LNZ B226    ',  13.8000,1,   3,   4,   1,1.00633, -22.6009,1.10000,0.90000,1.10000,0.90000
  3077,'LNZ B425    ',  69.0000,1,   3,   4,   1,1.02441,  12.2461,1.10000,0.90000,1.10000,0.90000
  3078,'LPT B503    ', 138.0000,1,   3,   1,   1,0.97431,  22.5082,1.10000,0.90000,1.10000,0.90000
  3079,'LSL B628    ', 230.0000,1,   3,   5,   1,1.01267,  28.3297,1.10000,0.90000,1.10000,0.90000
  3080,'LUV B621    ', 230.0000,1,   3,   5,   1,1.01267,  28.3297,1.10000,0.90000,1.10000,0.90000
  3081,'MAS B352    ',  34.5000,1,   3,   1,   1,0.99915,  20.5656,1.10000,0.90000,1.10000,0.90000
  3082,'MAS B544    ', 138.0000,1,   3,   1,   1,0.99599,  24.9862,1.10000,0.90000,1.10000,0.90000
  3083,'MCH B311    ',  34.5000,1,   3,   3,   1,0.98822,  14.8988,1.10000,0.90000,1.10000,0.90000
  3084,'MCH 2.4KV   ',   2.4000,1,   3,   3,   1,0.97228, -19.1717,1.10000,0.90000,1.10000,0.90000
  3085,'MFL B523    ', 138.0000,1,   3,   4,   1,0.98456,  18.0441,1.10000,0.90000,1.10000,0.90000
  3086,'MOR B335    ',  34.5000,1,   3,   1,   1,0.99624,  14.6940,1.10000,0.90000,1.10000,0.90000
  3087,'MOR B435    ',  69.0000,1,   3,   1,   1,0.98542,  18.4872,1.10000,0.90000,1.10000,0.90000
  3088,'NIS B310    ',  34.5000,1,   3,   3,   1,1.00292,  34.0470,1.10000,0.90000,1.10000,0.90000
  3089,'NIS B439    ',  69.0000,1,   3,   3,   1,1.01804,  32.7857,1.10000,0.90000,1.10000,0.90000
  3090,'PAV B363    ',  34.5000,2,   3,   5,   1,1.00000,  25.9601,1.10000,0.90000,1.10000,0.90000
  3091,'PAZ B525    ', 138.0000,1,   3,   4,   1,0.96975,  18.6982,1.10000,0.90000,1.10000,0.90000
  3092,'PAZ B125    ',   4.1600,1,   3,   4,   2,0.99436,  48.1149,1.10000,0.90000,1.10000,0.90000
  3093,'LOS PLANES  ',   0.4000,4,   3,   4,   2,1.00000,   0.0000,1.10000,0.90000,1.10000,0.90000
  3094,'PGR B422    ',  69.0000,1,   3,   1,   1,0.99906,  20.3350,1.10000,0.90000,1.10000,0.90000
  3095,'PGR B603    ', 230.0000,1,   3,   1,   1,0.96462,  25.0284,1.10000,0.90000,1.10000,0.90000
  3096,'BER B206    ',  13.8000,1,   3,   1,   1,0.99548, -13.6733,1.10000,0.90000,1.10000,0.90000
  3097,'RGU B518    ', 138.0000,1,   3,   2,   1,0.97874,  24.4836,1.10000,0.90000,1.10000,0.90000
  3098,'RLN B521    ', 138.0000,1,   3,   1,   1,1.00486,  24.1543,1.10000,0.90000,1.10000,0.90000
  3099,'SFE B303    ',  34.5000,1,   3,   4,   1,0.99649,  13.8364,1.10000,0.90000,1.10000,0.90000
  3100,'SFE B404    ',  69.0000,1,   3,   4,   1,1.02943,  12.4000,1.10000,0.90000,1.10000,0.90000
  3101,'SFE B505    ', 138.0000,1,   3,   4,   1,0.98180,  18.0472,1.10000,0.90000,1.10000,0.90000
  3102,'SGT B374    ',  34.5000,1,   3,   4,   1,0.99519,  10.4524,1.10000,0.90000,1.10000,0.90000
  3103,'SGT 138KV   ', 138.0000,1,   3,   4,   1,0.97274,  19.5265,1.10000,0.90000,1.10000,0.90000
  3104,'SIS B309    ',  34.5000,2,   3,   2,   1,1.01000, -11.3745,1.10000,0.90000,1.10000,0.90000
  3105,'SIS B548    ', 138.0000,1,   3,   2,   1,0.97202,  23.7835,1.10000,0.90000,1.10000,0.90000
  3106,'SLU B321    ',  34.5000,2,   3,   5,   1,1.00648,  31.4811,1.10000,0.90000,1.10000,0.90000
  3108,'SMT B534    ', 138.0000,1,   3,   1,   1,0.99371,  23.2276,1.10000,0.90000,1.10000,0.90000
  3109,'SRS B331    ',  34.5000,4,   3,   3,   1,1.00000,   0.0000,1.10000,0.90000,1.10000,0.90000
  3110,'PNU 69KV    ',  69.0000,1,   3,   4,   1,1.02648,  12.4498,1.10000,0.90000,1.10000,0.90000
  3111,'SRS B433    ',  69.0000,1,   3,   3,   1,1.03670,  37.8686,1.10000,0.90000,1.10000,0.90000
  3112,'SUY B203    ',  13.8000,1,   3,   4,   1,0.99333, -19.0050,1.10000,0.90000,1.10000,0.90000
  3113,'SUY B418    ',  69.0000,1,   3,   4,   1,1.03073,  13.0112,1.10000,0.90000,1.10000,0.90000
  3114,'BAB U01     ',  13.8000,2,   3,   4,   2,1.03000, -35.8228,1.10000,0.90000,1.10000,0.90000
  3115,'SMR U01     ',  13.8000,4,   3,   4,   1,1.00000,   0.0000,1.10000,0.90000,1.10000,0.90000
  3116,'TAL B404    ',  69.0000,1,   3,   1,   1,1.01000,  29.0337,1.10000,0.90000,1.10000,0.90000
  3117,'TEL B305    ',  34.5000,1,   3,   2,   1,0.99552,  15.5013,1.10000,0.90000,1.10000,0.90000
  3118,'TEL B511    ', 138.0000,1,   3,   2,   1,0.98599,  22.0475,1.10000,0.90000,1.10000,0.90000
  3119,'TON B228    ',  13.8000,1,   3,   4,   1,0.99291, -12.1752,1.10000,0.90000,1.10000,0.90000
  3120,'TON B535    ', 138.0000,1,   3,   4,   1,0.99076,  18.6882,1.10000,0.90000,1.10000,0.90000
  3121,'TSZ B226    ',  13.8000,1,   3,   1,   1,0.99978,  51.0751,1.10000,0.90000,1.10000,0.90000
  3122,'TSZ B526    ', 138.0000,1,   3,   1,   1,0.99921,  25.3334,1.10000,0.90000,1.10000,0.90000
  3123,'VNU B520    ', 138.0000,1,   3,   1,   1,0.97739,  22.9038,1.10000,0.90000,1.10000,0.90000
  3124,'VNU B322    ',  34.5000,2,   3,   1,   1,1.00095, -11.6405,1.10000,0.90000,1.10000,0.90000
  3125,'RBL U01     ',   4.1600,2,   3,   3,   2,1.02010,  -9.7184,1.10000,0.90000,1.10000,0.90000
  3126,'YOR B336    ',  34.5000,1,   3,   1,   1,0.98834,  12.0420,1.10000,0.90000,1.10000,0.90000
  3127,'ZAM B331    ',  34.5000,1,   3,   4,   1,1.00029,   6.0214,1.10000,0.90000,1.10000,0.90000
  3128,'ZAM B431    ',  69.0000,1,   3,   4,   1,0.97972,   8.3640,1.10000,0.90000,1.10000,0.90000
  3129,'ZAC U01     ',   0.4800,2,   3,   3,   2,1.00000,   4.8993,1.10000,0.90000,1.10000,0.90000
  3130,'CDA B210    ',  13.8000,1,   3,   4,   1,0.99623, -18.0315,1.10000,0.90000,1.10000,0.90000
  3131,'SUY R212    ',  13.8000,1,   3,   4,   1,0.99310, -12.0886,1.10000,0.90000,1.10000,0.90000
  3132,'SUY R213    ',  13.8000,1,   3,   4,   1,0.99306, -12.0843,1.10000,0.90000,1.10000,0.90000
  3133,'PNU 13.8KV  ',  13.8000,1,   3,   4,   1,1.00670, -21.0715,1.10000,0.90000,1.10000,0.90000
  3134,'LPT B244    ',  13.8000,1,   3,   1,   1,1.00047, -12.5364,1.10000,0.90000,1.10000,0.90000
  3135,'SFE 34.5KV  ',  34.5000,1,   3,   4,   1,1.01013,  12.4000,1.10000,0.90000,1.10000,0.90000
  3136,'BER 13.8KV  ',  13.8000,1,   3,   1,   1,0.99875,  -7.7349,1.10000,0.90000,1.10000,0.90000
  3137,'CIR B222    ',  13.8000,1,   3,   1,   1,1.00422, -14.3882,1.10000,0.90000,1.10000,0.90000
  3139,'GEV U01     ',   0.4800,2,   3,   1,   2,1.01000, -40.6849,1.10000,0.90000,1.10000,0.90000
  3140,'RET B257    ',  13.8000,1,   3,   1,   1,1.00121, -12.2857,1.10000,0.90000,1.10000,0.90000
  3141,'DAN B333    ',  34.5000,2,   3,   4,   1,0.99613,   0.0818,1.10000,0.90000,1.10000,0.90000
  3142,'ENF U01     ',   0.4800,2,   3,   1,   2,1.00789, -40.4352,1.10000,0.90000,1.10000,0.90000
  3143,'CHU U01     ',  13.8000,2,   3,   1,   2,1.00789, -40.4352,1.10000,0.90000,1.10000,0.90000
  3144,'LGL U01     ',  13.8000,2,   3,   2,   1,1.01000, -41.3745,1.10000,0.90000,1.10000,0.90000
  3145,'CUY 69      ',  69.0000,1,   3,   1,   2,0.98483,  18.0906,1.10000,0.90000,1.10000,0.90000
  3146,'CUY U01     ',  13.8000,2,   3,   1,   2,1.00000, -10.4341,1.10000,0.90000,1.10000,0.90000
  3147,'SRS B331    ',  34.5000,4,   3,   3,   1,1.00000,   0.0000,1.10000,0.90000,1.10000,0.90000
  3148,'NIC U05     ',   0.4800,2,   3,   2,   2,1.00000,  -6.7074,1.10000,0.90000,1.10000,0.90000
  3149,'RLQ B056    ',   0.4150,1,   3,   3,   2,1.00297, -23.1702,1.10000,0.90000,1.10000,0.90000
  3150,'LNZ B227    ',  13.8000,1,   3,   4,   1,1.00633, -22.6009,1.10000,0.90000,1.10000,0.90000
  3151,'SGT 34.5KV  ',  34.5000,1,   3,   4,   1,0.97236,  12.7048,1.10000,0.90000,1.10000,0.90000
  3152,'SRS B332    ',  34.5000,1,   3,   3,   1,1.00297,   6.1212,1.10000,0.90000,1.10000,0.90000
  3153,'CYM U01     ',   4.1600,2,   3,   1,   2,0.99887,  -8.0599,1.10000,0.90000,1.10000,0.90000
  3154,'SCA U01     ',   4.1600,2,   3,   1,   2,0.99915,  -9.4344,1.10000,0.90000,1.10000,0.90000
  3155,'TON B610    ', 230.0000,1,   3,   4,   1,0.97968,  24.3564,1.10000,0.90000,1.10000,0.90000
  3156,'NIV U01     ',   0.4800,2,   3,   1,   2,1.02077, -11.8002,1.10000,0.90000,1.10000,0.90000
  3157,'CCE B 329   ',  34.5000,1,   3,   2,   1,1.00311,  -8.6594,1.10000,0.90000,1.10000,0.90000
  3158,'COR U01     ',   4.1600,2,   3,   1,   2,0.99902,  -8.5107,1.10000,0.90000,1.10000,0.90000
  3159,'VNU B323    ',  34.5000,1,   3,   1,   1,1.00095, -11.6405,1.10000,0.90000,1.10000,0.90000
  3160,'RET 138KV   ', 138.0000,1,   3,   1,   1,0.98143,  22.4058,1.10000,0.90000,1.10000,0.90000
  3161,'RET B256    ',  13.8000,1,   3,   1,   1,1.00265, -13.9965,1.10000,0.90000,1.10000,0.90000
  3162,'LES U01     ',   4.1600,2,   3,   4,   2,0.98765, -44.7714,1.10000,0.90000,1.10000,0.90000
  3163,'CPA U01     ',   4.1600,2,   3,   1,   2,1.02077, -11.8002,1.10000,0.90000,1.10000,0.90000
  3164,'ISL B331    ',  34.5000,1,   3,   2,   1,0.99182, -12.4267,1.10000,0.90000,1.10000,0.90000
  3165,'PEB U01     ',   4.1600,2,   3,   3,   2,1.02005,  -9.6500,1.10000,0.90000,1.10000,0.90000
  3166,'APC U01     ',   0.4800,2,   3,   3,   2,1.00000, -13.3616,1.10000,0.90000,1.10000,0.90000
  3167,'IHS U01     ',   0.4800,2,   3,   1,   2,1.00000, -38.7773,1.10000,0.90000,1.10000,0.90000
  3168,'ECO U01     ',   0.4800,2,   3,   1,   2,0.98815,  -9.8750,1.10000,0.90000,1.10000,0.90000
  3169,'CYR U01     ',   4.1600,2,   3,   4,   1,1.00000, -42.0603,1.10000,0.90000,1.10000,0.90000
  3170,'CUY 69KV    ',  69.0000,1,   3,   1,   1,0.98375,  18.0282,1.10000,0.90000,1.10000,0.90000
  3171,'CRN U01     ',  13.8000,2,   3,   4,   2,1.01904, -34.7051,1.10000,0.90000,1.10000,0.90000
  3173,'LEA U01     ',   4.1600,2,   3,   1,   2,0.99552, -14.4987,1.10000,0.90000,1.10000,0.90000
  3174,'MGG U01     ',   4.1600,2,   3,   1,   2,0.99552, -14.4987,1.10000,0.90000,1.10000,0.90000
  3175,'YOD U01     ',   4.1600,2,   3,   1,   2,0.98834, -17.9580,1.10000,0.90000,1.10000,0.90000
  3176,'ACE U01     ',   4.1600,2,   3,   2,   2,1.00476,  -9.9296,1.10000,0.90000,1.10000,0.90000
  3177,'LAU U01     ',   4.1600,2,   3,   1,   2,0.99915,  -9.4344,1.10000,0.90000,1.10000,0.90000
  3178,'TER T537    ',  13.8000,1,   3,   1,   1,0.97742, -11.7405,1.10000,0.90000,1.10000,0.90000
  3179,'TER LVI 138 ', 138.0000,1,   3,   1,   1,0.98464,  23.7149,1.10000,0.90000,1.10000,0.90000
  3180,'CAR B540    ', 138.0000,1,   3,   1,   1,0.99140,  23.6423,1.10000,0.90000,1.10000,0.90000
  3181,'CAR B340    ',  34.5000,2,   3,   1,   1,0.99570, -11.9896,1.10000,0.90000,1.10000,0.90000
  3182,'SJP U01     ',  13.8000,2,   3,   2,   2,0.99304,  -8.6607,1.10000,0.90000,1.10000,0.90000
  3183,'LEC B619    ', 230.0000,1,   3,   3,   1,1.00169,  24.2652,1.10000,0.90000,1.10000,0.90000
  3184,'LEC B309    ',  34.5000,1,   3,   3,   1,0.97708, -10.5295,1.10000,0.90000,1.10000,0.90000
  3185,'NCO B564    ', 138.0000,1,   3,   1,   1,0.97071,  22.8963,1.10000,0.90000,1.10000,0.90000
  3186,'NCO B364    ',  34.5000,1,   3,   1,   1,1.00789, -10.4352,1.10000,0.90000,1.10000,0.90000
  3187,'CYG B315    ',  34.5000,2,   3,   4,   1,0.99244, -19.1198,1.10000,0.90000,1.10000,0.90000
  3188,'PSM 230     ', 230.0000,1,   3,   5,   2,1.02679,  29.9052,1.10000,0.90000,1.10000,0.90000
  3190,'F-LEC-PAN   ', 230.0000,1,   3,   3,   1,1.00410,  24.2439,1.10000,0.90000,1.10000,0.90000
  3193,'EL ESTADIO  ', 138.0000,1,   3,   1,   1,0.97771,  22.6964,1.10000,0.90000,1.10000,0.90000
  3194,'EST CARGA   ',  13.8000,1,   3,   1,   1,0.99587, -11.0226,1.10000,0.90000,1.10000,0.90000
  3201,'SOLAR NAC1  ',  34.5000,2,   3,   5,   2,1.04000,  65.1320,1.10000,0.90000,1.10000,0.90000
  3203,'SPS B558    ', 138.0000,1,   3,   1,   1,0.98318,  23.2929,1.10000,0.90000,1.10000,0.90000
  3204,'AGP B556    ', 138.0000,1,   3,   1,   1,0.99194,  24.4601,1.10000,0.90000,1.10000,0.90000
  3205,'ENR B246    ',  13.8000,2,   3,   1,   2,1.01000,  60.9411,1.10000,0.90000,1.10000,0.90000
  3206,'ENR B247    ',  13.8000,2,   3,   1,   2,1.01000,  60.9411,1.10000,0.90000,1.10000,0.90000
  3207,'ENR B248    ',  13.8000,2,   3,   1,   2,1.01000,  60.9411,1.10000,0.90000,1.10000,0.90000
  3208,'ENR B249    ',  13.8000,2,   3,   1,   2,1.01000,  60.9411,1.10000,0.90000,1.10000,0.90000
  3209,'ENR B250    ',  13.8000,2,   3,   1,   2,0.96715,  54.4601,1.10000,0.90000,1.10000,0.90000
  3210,'PSM TER9    ',   0.7000,2,   3,   5,   2,1.00511,   1.6744,1.10000,0.90000,1.10000,0.90000
  3211,'NNC B639    ', 230.0000,1,   3,   5,   1,1.02515,  29.9660,1.10000,0.90000,1.10000,0.90000
  3213,'BCO 138     ', 138.0000,1,   3,   1,   1,0.99291,  24.9376,1.10000,0.90000,1.10000,0.90000
  3214,'BCO 13.8    ',  13.8000,2,   3,   1,   1,0.99814,  -0.3552,1.10000,0.90000,1.10000,0.90000
  3215,'MAT I 4.16  ',   4.2000,2,   3,   1,   1,0.99524,  46.8576,1.10000,0.90000,1.10000,0.90000
  3218,'BETUL 0.48  ',   0.5000,2,   3,   5,   1,0.99029, -10.6353,1.10000,0.90000,1.10000,0.90000
  3219,'MER 138     ', 138.0000,1,   3,   1,   1,0.98854,  23.7324,1.10000,0.90000,1.10000,0.90000
  3220,'MPP B268    ',  13.8000,2,   3,   1,   1,1.02000,  -2.6854,1.10000,0.90000,1.10000,0.90000
  3221,'SOLAR PRD   ',  34.5000,2,   3,   5,   1,1.01608,  60.8487,1.10000,0.90000,1.10000,0.90000
  3222,'SOLAR NAC2  ',  34.5000,2,   3,   5,   1,1.02000,  65.2020,1.10000,0.90000,1.10000,0.90000
  3223,'SOLAR SLU   ',  34.5000,2,   3,   5,   1,1.00147,  65.0381,1.10000,0.90000,1.10000,0.90000
  3224,'MEZAPA      ',   4.2000,2,   3,   2,   2,0.95516, -13.5156,1.10000,0.90000,1.10000,0.90000
  3225,'RGN         ',   4.1600,2,   3,   4,   2,0.98646, -32.5213,1.10000,0.90000,1.10000,0.90000
  3228,'GPP B269    ',  13.8000,2,   3,   1,   2,1.02000,  -7.5374,1.10000,0.90000,1.10000,0.90000
  3229,'BCO 13.8    ',  13.8000,2,   3,   1,   2,1.00000,  -0.6147,1.10000,0.90000,1.10000,0.90000
  3230,'MANZANI FUT ',  34.5000,4,   3,   5,   2,1.00000,   0.0000,1.10000,0.90000,1.10000,0.90000
  3243,'GPLATANARES ',  69.0000,1,   3,   3,   2,1.02934,  42.2064,1.10000,0.90000,1.10000,0.90000
  3244,'GPLATANARES ',  13.8000,2,   3,   3,   2,1.01000,  17.5746,1.10000,0.90000,1.10000,0.90000
  3262,'PAT B644    ', 230.0000,1,   3,   4,   1,1.01723,   3.2112,1.10000,0.90000,1.10000,0.90000
  3263,'PAT U1      ',  13.8000,2,   3,   4,   1,1.04000, -22.9608,1.10000,0.90000,1.10000,0.90000
  3264,'PAT U2      ',  13.8000,2,   3,   4,   1,1.01723, -26.7888,1.10000,0.90000,1.10000,0.90000
  3271,'PETACON     ',  34.5000,2,   3,   4,   1,0.98981, -10.4451,1.10000,0.90000,1.10000,0.90000
  3280,'BCO 13.8    ',  13.8000,2,   3,   1,   2,1.02000,  -0.7021,1.10000,0.90000,1.10000,0.90000
  3284,'SMT 13.8KV  ',  13.8000,1,   3,   1,   1,1.00459,  -8.7082,1.10000,0.90000,1.10000,0.90000
  3290,'BER UM510   ',  13.8000,1,   3,   1,   1,1.00405,  -9.3915,1.10000,0.90000,1.10000,0.90000
  3296,'AGV         ',   0.4800,2,   3,   3,   2,1.01867,  -8.1243,1.10000,0.90000,1.10000,0.90000
  3297,'CCG         ',  13.8000,1,   3,   1,   2,1.00602,  -7.0652,1.10000,0.90000,1.10000,0.90000
  3298,'CCG SE      ',  34.5000,1,   3,   1,   2,1.00029,  -6.4371,1.10000,0.90000,1.10000,0.90000
  3299,'CCG PL      ',  34.5000,2,   3,   1,   2,1.00000,  -5.2782,1.10000,0.90000,1.10000,0.90000
  3300,'SBV B609    ', 230.0000,1,   3,   3,   1,0.99800,  25.5601,1.10000,0.90000,1.10000,0.90000
  3301,'AGC B624    ', 230.0000,1,   3,   5,   1,1.01306,  28.3289,1.10000,0.90000,1.10000,0.90000
  3302,'PENCALIGUE  ',   4.1600,2,   3,   3,   2,1.00000,  66.6187,1.10000,0.90000,1.10000,0.90000
  3303,'PENCALIGUE  ',   4.1600,2,   3,   3,   2,1.00000,  66.6187,1.10000,0.90000,1.10000,0.90000
  3304,'EL FARO     ',  69.0000,1,   3,   1,   2,1.01223,  29.4590,1.10000,0.90000,1.10000,0.90000
  3305,'FAR B219    ',  13.8000,2,   3,   1,   2,1.02000,   4.7941,1.10000,0.90000,1.10000,0.90000
  3306,'SHL B572    ', 138.0000,1,   3,   2,   2,0.99326,  25.0265,1.10000,0.90000,1.10000,0.90000
  3307,'SLH 13.8    ',  13.8000,2,   3,   2,   2,1.01000,  58.6869,1.10000,0.90000,1.10000,0.90000
  3310,'PRD B618    ', 230.0000,1,   3,   5,   1,1.02338,  29.6436,1.10000,0.90000,1.10000,0.90000
  3311,'PRD B360    ',  34.5000,1,   3,   5,   1,0.99686,  29.4198,1.10000,0.90000,1.10000,0.90000
  3312,'UDEHSA      ',  34.5000,4,   3,   2,   2,1.00000,   0.0000,1.10000,0.90000,1.10000,0.90000
  3313,'PHP         ',   4.2000,2,   3,   3,   2,1.00000,  28.4275,1.10000,0.90000,1.10000,0.90000
  3314,'ODA B430    ',  69.0000,1,   3,   4,   1,0.95977,   6.0003,1.10000,0.90000,1.10000,0.90000
  3315,'PVR         ',  69.0000,1,   3,   4,   1,0.95679,   6.0711,1.10000,0.90000,1.10000,0.90000
  3316,'PVR B330    ',  34.5000,1,   3,   4,   1,1.00621, -23.8885,1.10000,0.90000,1.10000,0.90000
  3317,'SHL B 278   ',  13.8000,2,   3,   2,   2,0.99326,  55.0265,1.10000,0.90000,1.10000,0.90000
  3318,'ENCENADA    ', 138.0000,1,   3,   2,   1,0.98256,  25.2079,1.10000,0.90000,1.10000,0.90000
  3319,'LA ENSENADA ',  13.8000,2,   3,   2,   2,1.00000,  -0.5898,1.10000,0.90000,1.10000,0.90000
  3320,'LA ENSENADA ',  13.8000,2,   3,   2,   2,1.00000,   1.3777,1.10000,0.90000,1.10000,0.90000
  3321,'CHY B647    ', 230.0000,1,   3,   5,   1,1.02660,  29.8796,1.10000,0.90000,1.10000,0.90000
  3322,'ARN B586    ', 138.0000,1,   3,   2,   2,0.99578,  26.9418,1.10000,0.90000,1.10000,0.90000
  3323,'ARN B1      ',  13.8000,2,   3,   2,   2,1.00000,  58.1697,1.10000,0.90000,1.10000,0.90000
  3324,'ARN B2      ',  13.8000,2,   3,   2,   2,1.00000,  58.1697,1.10000,0.90000,1.10000,0.90000
  3325,'JUD B412    ',  69.0000,1,   3,   4,   1,1.00898,   0.4107,1.10000,0.90000,1.10000,0.90000
  3326,'JUD B650    ', 230.0000,1,   3,   4,   1,1.01022,   2.5807,1.10000,0.90000,1.10000,0.90000
  3327,'TER JUD T623',  34.5000,1,   3,   4,   1,0.98979, -29.6610,1.10000,0.90000,1.10000,0.90000
  3328,'CUYAGAUL    ',   4.1600,2,   3,   1,   2,1.00000,  22.9224,1.10000,0.90000,1.10000,0.90000
  3329,'CORRAL DE PI',   0.6900,2,   3,   4,   2,0.98693, -13.2347,1.10000,0.90000,1.10000,0.90000
  3330,'LOS PINOS 1 ',  34.5000,1,   3,   4,   2,0.99843,  -2.7661,1.10000,0.90000,1.10000,0.90000
  3331,'LOS PINOS   ',   0.4800,2,   3,   4,   2,0.99690,  30.4072,1.10000,0.90000,1.10000,0.90000
  3332,'SAN ALEJO   ',   4.1600,2,   3,   4,   2,0.98712,  16.4811,1.10000,0.90000,1.10000,0.90000
  3333,'BUS 1       ',  34.5000,2,   3,   1,   2,1.03500,   1.8008,1.10000,0.90000,1.10000,0.90000
  3334,'PEC         ',  13.8000,2,   3,   1,   2,1.02000, -36.6284,1.10000,0.90000,1.10000,0.90000
  3335,'PEC ALTIA   ',  34.5000,1,   3,   1,   2,1.00714, -10.2398,1.10000,0.90000,1.10000,0.90000
  3336,'PEC SJIP    ',  34.5000,1,   3,   1,   2,1.00714, -10.2398,1.10000,0.90000,1.10000,0.90000
  3350,'YOR B436    ',  69.0000,1,   3,   1,   1,0.96641,  16.0319,1.10000,0.90000,1.10000,0.90000
  3351,'LUT B246    ',  13.8000,2,   3,   5,   2,1.02000,   8.0170,1.10000,0.90000,1.10000,0.90000
  3352,'LUT B247    ',  13.8000,2,   3,   5,   2,1.01952,   0.7223,1.10000,0.90000,1.10000,0.90000
  3353,'LUT B248    ',  13.8000,2,   3,   5,   2,0.98836,  -1.6701,1.10000,0.90000,1.10000,0.90000
  3354,'LUT B249    ',  13.8000,2,   3,   5,   2,0.98836,  -1.6701,1.10000,0.90000,1.10000,0.90000
  3355,'LUT B622    ', 230.0000,1,   3,   5,   1,1.01307,  28.3299,1.10000,0.90000,1.10000,0.90000
  3402,'NAC U01     ',   4.1600,2,   3,   5,   1,1.00000,  -3.1602,1.10000,0.90000,1.10000,0.90000
  3408,'RNA 138KV   ', 138.0000,1,   3,   1,   1,0.99051,  24.6241,1.10000,0.90000,1.10000,0.90000
  3409,'RNA B333    ',  34.5000,1,   3,   1,   1,1.00307,  -8.3879,1.10000,0.90000,1.10000,0.90000
  3411,'SFE B103    ',  13.8000,2,   3,   4,   1,0.99649, -16.1636,1.10000,0.90000,1.10000,0.90000
  3412,'TRV U01     ',   4.1600,2,   3,   4,   2,1.01000, -51.5516,1.10000,0.90000,1.10000,0.90000
  3413,'ETX B255    ',  13.8000,2,   3,   1,   1,1.03500,   1.8008,1.10000,0.90000,1.10000,0.90000
  3415,'ELC B231    ',  13.8000,2,   3,   1,   2,1.04800,   0.6018,1.10000,0.90000,1.10000,0.90000
  3416,'ELC B232    ',  13.8000,2,   3,   1,   2,0.99934,  -4.6575,1.10000,0.90000,1.10000,0.90000
  3417,'SUY B223    ',  13.8000,1,   3,   4,   1,0.99942, -18.9079,1.10000,0.90000,1.10000,0.90000
  3418,'CJN B370    ',  34.5000,1,   3,   3,   1,1.00102,  25.2755,1.10000,0.90000,1.10000,0.90000
  3419,'CAH 69KV    ',  69.0000,1,   3,   1,   1,0.98951,  19.3968,1.10000,0.90000,1.10000,0.90000
  3420,'CAH U01     ',  13.8000,2,   3,   1,   2,0.98951, -10.6032,1.10000,0.90000,1.10000,0.90000
  3421,'GRE U01     ',  13.8000,2,   3,   5,   2,1.01000,   3.3252,1.10000,0.90000,1.10000,0.90000
  3424,'ETX 69KV    ',  69.0000,1,   3,   1,   1,1.01540,  26.9190,1.10000,0.90000,1.10000,0.90000
  3425,'ERA B471    ',  69.0000,1,   3,   3,   1,1.01422,  32.6734,1.10000,0.90000,1.10000,0.90000
  3426,'ERA B302    ',  34.5000,1,   3,   3,   1,1.00358,  30.0966,1.10000,0.90000,1.10000,0.90000
  3427,'AMT B541    ', 138.0000,1,   3,   3,   1,0.99237,  19.7756,1.10000,0.90000,1.10000,0.90000
  3428,'AMT B314    ',  34.5000,1,   3,   3,   1,0.99468,  -3.0922,1.10000,0.90000,1.10000,0.90000
  3429,'AMT B605    ', 230.0000,1,   3,   3,   1,0.97530,  23.7057,1.10000,0.90000,1.10000,0.90000
  3430,'CAT B443    ',  69.0000,1,   3,   4,   1,0.94937,  -3.6334,1.10000,0.90000,1.10000,0.90000
  3431,'CAT B342    ',  34.5000,1,   3,   4,   1,0.99788, -39.1969,1.10000,0.90000,1.10000,0.90000