    101 'GENCLS' 1     0.0000       0.0000      /
    102 'GENROU' 1     8.0000      0.30000E-01  0.40000      0.50000E-01
          6.1750      0.50000E-01   1.8000       1.7000      0.30000
         0.55000      0.25000      0.20000      0.10000      0.80000      /
   102   'ST6B'   1       0
         0.12000E-01    50.038        45.094
          0.0000        0.0000        4.8100
         -3.8500        1.0000        1.0000
          1.0577        17.330        2.1500
          4.8100       -3.8500        1.0000       0.20000E-01    /
