    101 'GENCLS' 1     0.0000       0.0000      /
    102 'GENROU' 1     8.0000      0.30000E-01  0.40000      0.50000E-01
          6.1750      0.50000E-01   1.8000       1.7000      0.30000
         0.55000      0.25000      0.20000      0.10000      0.80000      /
   102 'ST8C'   1       0      0      0      0
         0.10000E-01    5.0000        5.0000        99.9900        0.0000
          4.0000        0.1000       99.99620      -99.86600        1.3500
         0.30000E-02    99.3449       -99.1691       0.50000       0.50000E-02
         0.10000        4.0000        0.0000        0.0000        0.0000
          99.000        0.0000        0.0000        99.000        /
