101 'GENCLS' 1  0.000000  0.000000  /
102 'GENROU' 1   8.000000  0.03  0.400000  0.050000  6.175000  0.050000  1.800000
  1.700000  0.300000  0.550000  0.25  0.200000  0.00000  0.00  /
