    101 'GENCLS' 1     0.0000       0.0000      /
    102 'GENROU' 1     8.0000      0.30000E-01  0.40000      0.50000E-01
          6.1750      0.50000E-01   1.8000       1.7000      0.30000
         0.55000      0.25000      0.20000       0.0000       1.0000      /
    102 'SEXS' 1    0.4    5.0      20.0     1.0     -50.0       50.0 /
    102 'WPIDHY'   1    0.10000E-01  -0.50000E-01   3.0000      0.50000
          3.0000      0.20000E-01  0.10000E-01  0.25000E-01 -0.25000E-01
          1.0000      0.20000       3.2500       52001.       0.0000
          0.0000      0.12000      0.54500      0.40000      0.82700
         0.83000       1.0000       /
