    101 'GENCLS' 1     0.0000       0.0000      /
