2 'GENCLS' 1 0 0 /
1 'GENROU' 1    7     999   0.4   999   4   0   2.2   2.2   0.30   0.30  0.3     0.2    0.000   0.000 /   
1 'SEXS' 1 1.0 1.0 130.0 0.4 -10.0 10.0 /



